/*---------------------------------------------------------------------------*\
| =========                 |                                                 |
| \\      /  F ield         | OpenFOAM: The Open Source CFD Toolbox           |
|  \\    /   O peration     | Version:  2506                                  |
|   \\  /    A nd           | Website:  www.openfoam.com                      |
|    \\/     M anipulation  |                                                 |
\*---------------------------------------------------------------------------*/
Build  : 34e226dfe3-20211220 OPENFOAM=2506 version=v2506
Arch   : "LSB;label=32;scalar=64"
Exec   : C:\Users\evina\AppData\Roaming\Keysight-OpenCFD\OpenFOAM\v2506\msys64\home\ofuser\OpenFOAM\OpenFOAM-v2506\platforms\win64MingwDPInt32Opt\bin\simpleFoam.exe
Date   : Oct 18 2025
Time   : 13:55:59
Host   : EDIL
PID    : 13256
I/O    : uncollated
Case   : C:/Users/evina/AppData/Roaming/Keysight-OpenCFD/OpenFOAM/v2506/msys64/home/ofuser/OpenFOAM/OpenFOAM-v2506/tutorials/incompressible/simpleFoam/motorBike
nProcs : 1
trapFpe: Floating point exception trapping enabled (FOAM_SIGFPE).
fileModificationChecking : Monitoring run-time modified files using timeStampMaster (fileModificationSkew 5, maxFileModificationPolls 20)
allowSystemOperations : Allowing user-supplied system call operations

// * * * * * * * * * * * * * * * * * * * * * * * * * * * * * * * * * * * * * //
Create time

Create mesh for time = 0


SIMPLE: no convergence criteria found. Calculations will run for 500 steps.

Reading field p

Reading field U

Reading/calculating face flux field phi

Selecting incompressible transport model Newtonian
Selecting turbulence model type RAS
Selecting RAS turbulence model kOmegaSST
Selecting patchDistMethod meshWave
RAS
{
    RASModel        kOmegaSST;
    turbulence      on;
    printCoeffs     on;
    alphaK1         0.85;
    alphaK2         1;
    alphaOmega1     0.5;
    alphaOmega2     0.856;
    gamma1          0.555556;
    gamma2          0.44;
    beta1           0.075;
    beta2           0.0828;
    betaStar        0.09;
    a1              0.31;
    b1              1;
    c1              10;
    F3              false;
    decayControl    false;
    kInf            0;
    omegaInf        0;
}

No MRF models present

No finite volume options present

Starting time loop

streamLine streamLines:
    Employing velocity field U
    automatic track length specified through number of sub cycles : 5

nearWallFields near: Sampling 1 fields
wallBoundedStreamLine wallBoundedStreamLines:
    Employing velocity field UNear
Sampled surface:
    yNormal -> vtk
        sampledCuttingPlane: yNormal : plane:(0 1 0) (0 0 0) offsets:(0)

forceCoeffs forceCoeffs1:
    rho: rhoInf
    Freestream density (rhoInf) set to 1
    Not including porosity effects
    magUInf: 20
    lRef   : 1.42
    Aref   : 0.75
    rhoInf : 1
    Selecting all coefficients
    - Drag force: Cd
    - Drag force front: Cd(f)
    - Drag force rear: Cd(r)
    - Lift force: Cl
    - Lift force front: Cl(f)
    - Lift force rear: Cl(r)
    - Pitch moment: CmPitch
    - Roll moment: CmRoll
    - Yaw moment: CmYaw
    - Side force: Cs
    - Side force front: Cs(f)
    - Side force rear: Cs(r)


foamReport foamReport1:
    Template: "<system>/myReportTemplate.md"
    Reading substitutions
        Selecting substitution model fileRegEx
        Selecting substitution model dictionaryValue
        Selecting substitution model dictionaryValue
        Selecting substitution model dictionaryValue
    Reading template from "C:/Users/evina/AppData/Roaming/Keysight-OpenCFD/OpenFOAM/v2506/msys64/home/ofuser/OpenFOAM/OpenFOAM-v2506/tutorials/incompressible/simpleFoam/motorBike/system/myReportTemplate.md"

Time = 1

smoothSolver:  Solving for Ux, Initial residual = 0.0875853, Final residual = 0.00763882, No Iterations 7
smoothSolver:  Solving for Uy, Initial residual = 0.593869, Final residual = 0.0545337, No Iterations 6
smoothSolver:  Solving for Uz, Initial residual = 0.398069, Final residual = 0.0321203, No Iterations 5
GAMG:  Solving for p, Initial residual = 1, Final residual = 0.00548638, No Iterations 5
time step continuity errors : sum local = 0.000550091, global = 5.43663e-06, cumulative = 5.43663e-06
smoothSolver:  Solving for omega, Initial residual = 0.00275036, Final residual = 0.000187613, No Iterations 3
bounding omega, min: -0.890329 max: 20628.6 average: 234.346
smoothSolver:  Solving for k, Initial residual = 1, Final residual = 0.0839769, No Iterations 2
ExecutionTime = 4.283 s  ClockTime = 4 s

forceCoeffs forceCoeffs1 write:
    Coefficient	Total	Pressure	Viscous	Internal
    Cd:	1.33084	1.30852	0.0223182	0
    Cd(f):	0.669231	0.658043	0.0111884	0
    Cd(r):	0.661604	0.650474	0.0111298	0
    Cl:	-0.0395871	-0.0404544	0.000867307	0
    Cl(f):	0.545214	0.535884	0.00933017	0
    Cl(r):	-0.584801	-0.576338	-0.00846286	0
    CmPitch:	0.565008	0.556111	0.00889651	0
    CmRoll:	0.00381376	0.00378447	2.92888e-05	0
    CmYaw:	-0.00200884	-0.00193012	-7.87255e-05	0
    Cs:	-0.0221267	-0.0220955	-3.11834e-05	0
    Cs(f):	-0.0130722	-0.0129779	-9.43172e-05	0
    Cs(r):	-0.00905451	-0.00911764	6.31338e-05	0

    writing force and moment coefficient files.

Time = 2

smoothSolver:  Solving for Ux, Initial residual = 0.0386164, Final residual = 0.00347085, No Iterations 7
smoothSolver:  Solving for Uy, Initial residual = 0.389279, Final residual = 0.0324017, No Iterations 7
smoothSolver:  Solving for Uz, Initial residual = 0.159633, Final residual = 0.0119981, No Iterations 7
GAMG:  Solving for p, Initial residual = 0.0755595, Final residual = 0.00031052, No Iterations 5
time step continuity errors : sum local = 0.000321264, global = 1.34173e-05, cumulative = 1.88539e-05
smoothSolver:  Solving for omega, Initial residual = 0.00237354, Final residual = 0.000206266, No Iterations 3
bounding omega, min: -19.0918 max: 22266.9 average: 291.579
smoothSolver:  Solving for k, Initial residual = 0.0912951, Final residual = 0.00896221, No Iterations 2
ExecutionTime = 6.502 s  ClockTime = 6 s

forceCoeffs forceCoeffs1 write:
    Coefficient	Total	Pressure	Viscous	Internal
    Cd:	1.52701	1.50832	0.0186945	0
    Cd(f):	0.771179	0.761816	0.00936254	0
    Cd(r):	0.755835	0.746503	0.00933192	0
    Cl:	-0.0535375	-0.0541245	0.000587006	0
    Cl(f):	0.624754	0.617185	0.00756882	0
    Cl(r):	-0.678291	-0.671309	-0.00698181	0
    CmPitch:	0.651522	0.644247	0.00727532	0
    CmRoll:	0.00767191	0.0076566	1.53112e-05	0
    CmYaw:	-0.00299082	-0.00291244	-7.83841e-05	0
    Cs:	-0.0320192	-0.0320627	4.35142e-05	0
    Cs(f):	-0.0190004	-0.0189438	-5.66269e-05	0
    Cs(r):	-0.0130188	-0.0131189	0.000100141	0

    writing force and moment coefficient files.

Time = 3

smoothSolver:  Solving for Ux, Initial residual = 0.0202601, Final residual = 0.00200424, No Iterations 7
smoothSolver:  Solving for Uy, Initial residual = 0.301145, Final residual = 0.0258343, No Iterations 7
smoothSolver:  Solving for Uz, Initial residual = 0.108603, Final residual = 0.00869656, No Iterations 7
GAMG:  Solving for p, Initial residual = 0.0519146, Final residual = 0.000479495, No Iterations 4
time step continuity errors : sum local = 0.000691009, global = 2.01764e-05, cumulative = 3.90303e-05
smoothSolver:  Solving for omega, Initial residual = 0.00209271, Final residual = 0.000194954, No Iterations 3
smoothSolver:  Solving for k, Initial residual = 0.041419, Final residual = 0.00214323, No Iterations 3
ExecutionTime = 8.524 s  ClockTime = 8 s

forceCoeffs forceCoeffs1 write:
    Coefficient	Total	Pressure	Viscous	Internal
    Cd:	1.34174	1.32603	0.0157112	0
    Cd(f):	0.678232	0.670328	0.00790424	0
    Cd(r):	0.663508	0.655701	0.00780693	0
    Cl:	-0.0394904	-0.0399423	0.000451979	0
    Cl(f):	0.554878	0.548582	0.00629624	0
    Cl(r):	-0.594368	-0.588524	-0.00584426	0
    CmPitch:	0.574623	0.568553	0.00607025	0
    CmRoll:	0.00736208	0.00731343	4.86508e-05	0
    CmYaw:	-0.000861494	-0.000782316	-7.91784e-05	0
    Cs:	-0.0290578	-0.029084	2.6169e-05	0
    Cs(f):	-0.0153904	-0.0153243	-6.60939e-05	0
    Cs(r):	-0.0136674	-0.0137597	9.22629e-05	0

    writing force and moment coefficient files.

Time = 4

smoothSolver:  Solving for Ux, Initial residual = 0.013743, Final residual = 0.00106406, No Iterations 8
smoothSolver:  Solving for Uy, Initial residual = 0.240405, Final residual = 0.019838, No Iterations 7
smoothSolver:  Solving for Uz, Initial residual = 0.098141, Final residual = 0.00786824, No Iterations 7
GAMG:  Solving for p, Initial residual = 0.0455291, Final residual = 0.000384013, No Iterations 4
time step continuity errors : sum local = 0.000635154, global = 1.46491e-05, cumulative = 5.36793e-05
smoothSolver:  Solving for omega, Initial residual = 0.00195198, Final residual = 0.00017929, No Iterations 3
smoothSolver:  Solving for k, Initial residual = 0.02387, Final residual = 0.00140598, No Iterations 3
ExecutionTime = 10.515 s  ClockTime = 10 s

forceCoeffs forceCoeffs1 write:
    Coefficient	Total	Pressure	Viscous	Internal
    Cd:	1.09143	1.07762	0.013812	0
    Cd(f):	0.550026	0.543062	0.00696381	0
    Cd(r):	0.541404	0.534556	0.00684821	0
    Cl:	-0.02855	-0.0288113	0.000261228	0
    Cl(f):	0.452169	0.446658	0.00551121	0
    Cl(r):	-0.480719	-0.475469	-0.00524998	0
    CmPitch:	0.466444	0.461063	0.0053806	0
    CmRoll:	0.00431096	0.00425316	5.77985e-05	0
    CmYaw:	0.00193025	0.00199868	-6.84224e-05	0
    Cs:	-0.0194279	-0.0194631	3.5186e-05	0
    Cs(f):	-0.00778371	-0.00773288	-5.08294e-05	0
    Cs(r):	-0.0116442	-0.0117302	8.60154e-05	0

    writing force and moment coefficient files.

Time = 5

smoothSolver:  Solving for Ux, Initial residual = 0.0106593, Final residual = 0.00105257, No Iterations 7
smoothSolver:  Solving for Uy, Initial residual = 0.205971, Final residual = 0.0166132, No Iterations 7
smoothSolver:  Solving for Uz, Initial residual = 0.101095, Final residual = 0.00819236, No Iterations 7
GAMG:  Solving for p, Initial residual = 0.0411203, Final residual = 0.000327104, No Iterations 4
time step continuity errors : sum local = 0.000596456, global = 2.50274e-05, cumulative = 7.87067e-05
smoothSolver:  Solving for omega, Initial residual = 0.00169529, Final residual = 0.000151463, No Iterations 3
smoothSolver:  Solving for k, Initial residual = 0.0161702, Final residual = 0.00104258, No Iterations 3
ExecutionTime = 12.463 s  ClockTime = 12 s

forceCoeffs forceCoeffs1 write:
    Coefficient	Total	Pressure	Viscous	Internal
    Cd:	0.890818	0.877946	0.0128721	0
    Cd(f):	0.446336	0.439829	0.00650668	0
    Cd(r):	0.444482	0.438116	0.00636543	0
    Cl:	-0.0215773	-0.0216861	0.000108849	0
    Cl(f):	0.367475	0.362333	0.00514194	0
    Cl(r):	-0.389052	-0.384019	-0.00503309	0
    CmPitch:	0.378263	0.373176	0.00508751	0
    CmRoll:	0.000926941	0.000856317	7.06245e-05	0
    CmYaw:	0.004339	0.00438826	-4.92656e-05	0
    Cs:	-0.0108266	-0.0108461	1.95446e-05	0
    Cs(f):	-0.00107429	-0.0010348	-3.94933e-05	0
    Cs(r):	-0.00975229	-0.00981133	5.90379e-05	0

    writing force and moment coefficient files.

Time = 6

smoothSolver:  Solving for Ux, Initial residual = 0.00851904, Final residual = 0.000823676, No Iterations 7
smoothSolver:  Solving for Uy, Initial residual = 0.183364, Final residual = 0.0146168, No Iterations 7
smoothSolver:  Solving for Uz, Initial residual = 0.105986, Final residual = 0.00872679, No Iterations 7
GAMG:  Solving for p, Initial residual = 0.036681, Final residual = 0.000270095, No Iterations 4
time step continuity errors : sum local = 0.000532939, global = 3.42064e-05, cumulative = 0.000112913
smoothSolver:  Solving for omega, Initial residual = 0.00143002, Final residual = 0.000125697, No Iterations 3
smoothSolver:  Solving for k, Initial residual = 0.0122264, Final residual = 0.000843154, No Iterations 3
ExecutionTime = 14.365 s  ClockTime = 14 s

forceCoeffs forceCoeffs1 write:
    Coefficient	Total	Pressure	Viscous	Internal
    Cd:	0.740555	0.728212	0.0123431	0
    Cd(f):	0.369958	0.363704	0.00625397	0
    Cd(r):	0.370598	0.364508	0.00608912	0
    Cl:	-0.0102334	-0.0102355	2.11484e-06	0
    Cl(f):	0.30699	0.301968	0.00502223	0
    Cl(r):	-0.317224	-0.312204	-0.00502012	0
    CmPitch:	0.312107	0.307086	0.00502117	0
    CmRoll:	-0.000319806	-0.00040223	8.24232e-05	0
    CmYaw:	0.00427487	0.0043197	-4.48272e-05	0
    Cs:	-0.00814987	-0.00814622	-3.64583e-06	0
    Cs(f):	0.00019994	0.00024659	-4.66501e-05	0
    Cs(r):	-0.0083498	-0.00839281	4.30043e-05	0

    writing force and moment coefficient files.

Time = 7

smoothSolver:  Solving for Ux, Initial residual = 0.00713035, Final residual = 0.000672721, No Iterations 7
smoothSolver:  Solving for Uy, Initial residual = 0.164807, Final residual = 0.0130783, No Iterations 7
smoothSolver:  Solving for Uz, Initial residual = 0.115033, Final residual = 0.00948555, No Iterations 7
GAMG:  Solving for p, Initial residual = 0.0325954, Final residual = 0.000217711, No Iterations 4
time step continuity errors : sum local = 0.000457206, global = 3.74558e-05, cumulative = 0.000150369
smoothSolver:  Solving for omega, Initial residual = 0.0012375, Final residual = 0.000105473, No Iterations 3
smoothSolver:  Solving for k, Initial residual = 0.00988036, Final residual = 0.000715926, No Iterations 3
ExecutionTime = 16.316 s  ClockTime = 16 s

forceCoeffs forceCoeffs1 write:
    Coefficient	Total	Pressure	Viscous	Internal
    Cd:	0.634332	0.622265	0.0120675	0
    Cd(f):	0.317337	0.311217	0.00611997	0
    Cd(r):	0.316995	0.311048	0.00594755	0
    Cl:	0.000731721	0.000805897	-7.41766e-05	0
    Cl(f):	0.265193	0.260171	0.00502224	0
    Cl(r):	-0.264461	-0.259365	-0.00509641	0
    CmPitch:	0.264827	0.259768	0.00505933	0
    CmRoll:	0.000170704	8.44943e-05	8.62097e-05	0
    CmYaw:	0.00218635	0.00222939	-4.30402e-05	0
    Cs:	-0.00958591	-0.00956545	-2.04535e-05	0
    Cs(f):	-0.0026066	-0.00255333	-5.32669e-05	0
    Cs(r):	-0.0069793	-0.00701212	3.28135e-05	0

    writing force and moment coefficient files.

Time = 8

smoothSolver:  Solving for Ux, Initial residual = 0.00611872, Final residual = 0.000578125, No Iterations 7
smoothSolver:  Solving for Uy, Initial residual = 0.14642, Final residual = 0.0115352, No Iterations 7
smoothSolver:  Solving for Uz, Initial residual = 0.124437, Final residual = 0.0102439, No Iterations 7
GAMG:  Solving for p, Initial residual = 0.0296934, Final residual = 0.000172991, No Iterations 4
time step continuity errors : sum local = 0.000380263, global = 3.56868e-05, cumulative = 0.000186056
smoothSolver:  Solving for omega, Initial residual = 0.00108663, Final residual = 9.09973e-05, No Iterations 3
smoothSolver:  Solving for k, Initial residual = 0.00836357, Final residual = 0.000630823, No Iterations 3
ExecutionTime = 18.02 s  ClockTime = 18 s

forceCoeffs forceCoeffs1 write:
    Coefficient	Total	Pressure	Viscous	Internal
    Cd:	0.562949	0.551	0.0119496	0
    Cd(f):	0.283566	0.277487	0.00607906	0
    Cd(r):	0.279383	0.273513	0.00587052	0
    Cl:	0.00780396	0.0079372	-0.000133235	0
    Cl(f):	0.236207	0.231148	0.00505975	0
    Cl(r):	-0.228403	-0.22321	-0.00519298	0
    CmPitch:	0.232305	0.227179	0.00512636	0
    CmRoll:	0.00209115	0.00198688	0.00010427	0
    CmYaw:	-0.00122905	-0.00117258	-5.64689e-05	0
    Cs:	-0.0145833	-0.0145129	-7.03912e-05	0
    Cs(f):	-0.0085207	-0.00842904	-9.16645e-05	0
    Cs(r):	-0.0060626	-0.00608388	2.12733e-05	0

    writing force and moment coefficient files.

Time = 9

smoothSolver:  Solving for Ux, Initial residual = 0.00536528, Final residual = 0.000517145, No Iterations 7
smoothSolver:  Solving for Uy, Initial residual = 0.131634, Final residual = 0.0102395, No Iterations 7
smoothSolver:  Solving for Uz, Initial residual = 0.131373, Final residual = 0.0107894, No Iterations 7
GAMG:  Solving for p, Initial residual = 0.0275809, Final residual = 0.00014296, No Iterations 4
time step continuity errors : sum local = 0.000322907, global = 2.58619e-05, cumulative = 0.000211918
smoothSolver:  Solving for omega, Initial residual = 0.000967543, Final residual = 7.96638e-05, No Iterations 3
smoothSolver:  Solving for k, Initial residual = 0.00731361, Final residual = 0.00057132, No Iterations 3
ExecutionTime = 19.909 s  ClockTime = 20 s

forceCoeffs forceCoeffs1 write:
    Coefficient	Total	Pressure	Viscous	Internal
    Cd:	0.516291	0.504375	0.0119166	0
    Cd(f):	0.263462	0.257378	0.00608428	0
    Cd(r):	0.252829	0.246996	0.00583229	0
    Cl:	0.012201	0.0123695	-0.000168459	0
    Cl(f):	0.216513	0.211404	0.00510875	0
    Cl(r):	-0.204312	-0.199035	-0.00527721	0
    CmPitch:	0.210412	0.205219	0.00519298	0
    CmRoll:	0.00531678	0.00519079	0.000125996	0
    CmYaw:	-0.00497425	-0.00490124	-7.30147e-05	0
    Cs:	-0.0221714	-0.0220355	-0.000135897	0
    Cs(f):	-0.01606	-0.015919	-0.000140963	0
    Cs(r):	-0.00611147	-0.00611654	5.06631e-06	0

    writing force and moment coefficient files.

Time = 10

smoothSolver:  Solving for Ux, Initial residual = 0.0048033, Final residual = 0.000473359, No Iterations 7
smoothSolver:  Solving for Uy, Initial residual = 0.119395, Final residual = 0.0092378, No Iterations 7
smoothSolver:  Solving for Uz, Initial residual = 0.124873, Final residual = 0.0102828, No Iterations 7
GAMG:  Solving for p, Initial residual = 0.0258781, Final residual = 0.000124978, No Iterations 4
time step continuity errors : sum local = 0.000285603, global = 1.14932e-05, cumulative = 0.000223411
smoothSolver:  Solving for omega, Initial residual = 0.00086958, Final residual = 7.11021e-05, No Iterations 3
smoothSolver:  Solving for k, Initial residual = 0.00655342, Final residual = 0.000527094, No Iterations 3
ExecutionTime = 21.801 s  ClockTime = 22 s

forceCoeffs forceCoeffs1 write:
    Coefficient	Total	Pressure	Viscous	Internal
    Cd:	0.485597	0.473667	0.0119308	0
    Cd(f):	0.250809	0.244697	0.00611206	0
    Cd(r):	0.234788	0.228969	0.00581879	0
    Cl:	0.0158314	0.0160016	-0.000170165	0
    Cl(f):	0.203085	0.19792	0.00516461	0
    Cl(r):	-0.187254	-0.181919	-0.00533477	0
    CmPitch:	0.195169	0.18992	0.00524969	0
    CmRoll:	0.00801066	0.00786402	0.000146639	0
    CmYaw:	-0.00797371	-0.00787396	-9.97471e-05	0
    Cs:	-0.0282019	-0.0280157	-0.000186259	0
    Cs(f):	-0.0220747	-0.0218818	-0.000192876	0
    Cs(r):	-0.00612725	-0.00613387	6.6178e-06	0

    writing force and moment coefficient files.

Time = 11

smoothSolver:  Solving for Ux, Initial residual = 0.0043963, Final residual = 0.000436679, No Iterations 7
smoothSolver:  Solving for Uy, Initial residual = 0.108385, Final residual = 0.00843179, No Iterations 7
smoothSolver:  Solving for Uz, Initial residual = 0.113818, Final residual = 0.00940219, No Iterations 7
GAMG:  Solving for p, Initial residual = 0.0248029, Final residual = 0.000118541, No Iterations 4
time step continuity errors : sum local = 0.000270841, global = -9.34295e-08, cumulative = 0.000223317
smoothSolver:  Solving for omega, Initial residual = 0.000800535, Final residual = 6.43757e-05, No Iterations 3
smoothSolver:  Solving for k, Initial residual = 0.0060618, Final residual = 0.000493207, No Iterations 3
ExecutionTime = 23.773 s  ClockTime = 24 s

forceCoeffs forceCoeffs1 write:
    Coefficient	Total	Pressure	Viscous	Internal
    Cd:	0.465015	0.453046	0.0119689	0
    Cd(f):	0.242698	0.236539	0.00615823	0
    Cd(r):	0.222317	0.216506	0.0058107	0
    Cl:	0.0195241	0.0196465	-0.000122406	0
    Cl(f):	0.194696	0.189461	0.00523521	0
    Cl(r):	-0.175172	-0.169815	-0.00535762	0
    CmPitch:	0.184934	0.179638	0.00529642	0
    CmRoll:	0.0101903	0.0100165	0.000173764	0
    CmYaw:	-0.009916	-0.00978933	-0.000126673	0
    Cs:	-0.0326034	-0.0323759	-0.000227564	0
    Cs(f):	-0.0262177	-0.0259773	-0.000240455	0
    Cs(r):	-0.00638571	-0.0063986	1.28907e-05	0

    writing force and moment coefficient files.

Time = 12

smoothSolver:  Solving for Ux, Initial residual = 0.00410379, Final residual = 0.000408039, No Iterations 7
smoothSolver:  Solving for Uy, Initial residual = 0.0986155, Final residual = 0.00776688, No Iterations 7
smoothSolver:  Solving for Uz, Initial residual = 0.108163, Final residual = 0.00906054, No Iterations 7
GAMG:  Solving for p, Initial residual = 0.0239308, Final residual = 0.000118226, No Iterations 4
time step continuity errors : sum local = 0.000267075, global = -5.47219e-06, cumulative = 0.000217845
smoothSolver:  Solving for omega, Initial residual = 0.000746875, Final residual = 5.90231e-05, No Iterations 3
smoothSolver:  Solving for k, Initial residual = 0.00572649, Final residual = 0.000467459, No Iterations 3
ExecutionTime = 25.843 s  ClockTime = 26 s

forceCoeffs forceCoeffs1 write:
    Coefficient	Total	Pressure	Viscous	Internal
    Cd:	0.451252	0.439203	0.0120494	0
    Cd(f):	0.236211	0.229984	0.00622687	0
    Cd(r):	0.215041	0.209218	0.00582252	0
    Cl:	0.0249875	0.0250864	-9.88952e-05	0
    Cl(f):	0.191114	0.185824	0.0052892	0
    Cl(r):	-0.166126	-0.160738	-0.00538809	0
    CmPitch:	0.17862	0.173281	0.00533864	0
    CmRoll:	0.0105852	0.010383	0.000202177	0
    CmYaw:	-0.0103175	-0.0101601	-0.000157389	0
    Cs:	-0.0328755	-0.0325998	-0.000275733	0
    Cs(f):	-0.0267553	-0.02646	-0.000295255	0
    Cs(r):	-0.00612022	-0.00613974	1.95222e-05	0

    writing force and moment coefficient files.

Time = 13

smoothSolver:  Solving for Ux, Initial residual = 0.003892, Final residual = 0.000385158, No Iterations 7
smoothSolver:  Solving for Uy, Initial residual = 0.0898254, Final residual = 0.00716375, No Iterations 7
smoothSolver:  Solving for Uz, Initial residual = 0.103542, Final residual = 0.00875705, No Iterations 7
GAMG:  Solving for p, Initial residual = 0.0233703, Final residual = 0.000119302, No Iterations 4
time step continuity errors : sum local = 0.000265295, global = -6.53112e-06, cumulative = 0.000211314
smoothSolver:  Solving for omega, Initial residual = 0.000698806, Final residual = 5.4759e-05, No Iterations 3
smoothSolver:  Solving for k, Initial residual = 0.00540956, Final residual = 0.000448531, No Iterations 3
ExecutionTime = 27.949 s  ClockTime = 28 s

forceCoeffs forceCoeffs1 write:
    Coefficient	Total	Pressure	Viscous	Internal
    Cd:	0.442761	0.430578	0.0121826	0
    Cd(f):	0.231199	0.224876	0.00632278	0
    Cd(r):	0.211562	0.205702	0.00585979	0
    Cl:	0.0313025	0.0313517	-4.91303e-05	0
    Cl(f):	0.19092	0.185561	0.00535896	0
    Cl(r):	-0.159617	-0.154209	-0.00540809	0
    CmPitch:	0.175268	0.169885	0.00538353	0
    CmRoll:	0.00981865	0.00958715	0.000231494	0
    CmYaw:	-0.0101578	-0.00997475	-0.000183025	0
    Cs:	-0.0309401	-0.0306173	-0.000322869	0
    Cs(f):	-0.0256278	-0.0252834	-0.000344459	0
    Cs(r):	-0.00531229	-0.00533388	2.15905e-05	0

    writing force and moment coefficient files.

Time = 14

smoothSolver:  Solving for Ux, Initial residual = 0.00372926, Final residual = 0.000369426, No Iterations 7
smoothSolver:  Solving for Uy, Initial residual = 0.0824617, Final residual = 0.00662972, No Iterations 7
smoothSolver:  Solving for Uz, Initial residual = 0.094802, Final residual = 0.00800763, No Iterations 7
GAMG:  Solving for p, Initial residual = 0.0229198, Final residual = 0.000119765, No Iterations 4
time step continuity errors : sum local = 0.000261973, global = -4.31719e-06, cumulative = 0.000206997
smoothSolver:  Solving for omega, Initial residual = 0.000655095, Final residual = 5.1207e-05, No Iterations 3
smoothSolver:  Solving for k, Initial residual = 0.00517253, Final residual = 0.00043383, No Iterations 3
ExecutionTime = 30.091 s  ClockTime = 30 s

forceCoeffs forceCoeffs1 write:
    Coefficient	Total	Pressure	Viscous	Internal
    Cd:	0.438633	0.426306	0.0123272	0
    Cd(f):	0.228084	0.221666	0.00641836	0
    Cd(r):	0.210549	0.20464	0.00590881	0
    Cl:	0.0376206	0.0376298	-9.17678e-06	0
    Cl(f):	0.19344	0.188013	0.00542682	0
    Cl(r):	-0.155819	-0.150383	-0.00543599	0
    CmPitch:	0.174629	0.169198	0.0054314	0
    CmRoll:	0.00876784	0.00851306	0.000254776	0
    CmYaw:	-0.0099097	-0.00970357	-0.000206127	0
    Cs:	-0.0284584	-0.0281113	-0.000347111	0
    Cs(f):	-0.0241389	-0.0237592	-0.000379682	0
    Cs(r):	-0.0043195	-0.00435208	3.2571e-05	0

    writing force and moment coefficient files.

Time = 15

smoothSolver:  Solving for Ux, Initial residual = 0.00357774, Final residual = 0.000357276, No Iterations 7
smoothSolver:  Solving for Uy, Initial residual = 0.076444, Final residual = 0.00617988, No Iterations 7
smoothSolver:  Solving for Uz, Initial residual = 0.0854331, Final residual = 0.00722225, No Iterations 7
GAMG:  Solving for p, Initial residual = 0.0224071, Final residual = 0.000117818, No Iterations 4
time step continuity errors : sum local = 0.00025463, global = 1.61727e-08, cumulative = 0.000207013
smoothSolver:  Solving for omega, Initial residual = 0.000618971, Final residual = 4.80721e-05, No Iterations 3
smoothSolver:  Solving for k, Initial residual = 0.00498452, Final residual = 0.000422575, No Iterations 3
ExecutionTime = 31.931 s  ClockTime = 32 s

forceCoeffs forceCoeffs1 write:
    Coefficient	Total	Pressure	Viscous	Internal
    Cd:	0.435777	0.423316	0.0124602	0
    Cd(f):	0.22593	0.219428	0.00650215	0
    Cd(r):	0.209847	0.203889	0.00595801	0
    Cl:	0.0436757	0.0436787	-3.05641e-06	0
    Cl(f):	0.196735	0.191262	0.0054734	0
    Cl(r):	-0.153059	-0.147583	-0.00547645	0
    CmPitch:	0.174897	0.169422	0.00547492	0
    CmRoll:	0.00804139	0.00776932	0.000272074	0
    CmYaw:	-0.00968744	-0.00947198	-0.000215462	0
    Cs:	-0.026628	-0.0262643	-0.000363709	0
    Cs(f):	-0.0230014	-0.0226041	-0.000397316	0
    Cs(r):	-0.00362656	-0.00366017	3.36074e-05	0

    writing force and moment coefficient files.

Time = 16

smoothSolver:  Solving for Ux, Initial residual = 0.00342594, Final residual = 0.00034223, No Iterations 7
smoothSolver:  Solving for Uy, Initial residual = 0.0708177, Final residual = 0.00576108, No Iterations 7
smoothSolver:  Solving for Uz, Initial residual = 0.0776297, Final residual = 0.00651302, No Iterations 7
GAMG:  Solving for p, Initial residual = 0.0217836, Final residual = 0.000111102, No Iterations 4
time step continuity errors : sum local = 0.000238532, global = 3.90119e-06, cumulative = 0.000210914
smoothSolver:  Solving for omega, Initial residual = 0.00058579, Final residual = 4.50477e-05, No Iterations 3
smoothSolver:  Solving for k, Initial residual = 0.00480975, Final residual = 0.000410731, No Iterations 3
ExecutionTime = 34.028 s  ClockTime = 34 s

forceCoeffs forceCoeffs1 write:
    Coefficient	Total	Pressure	Viscous	Internal
    Cd:	0.433093	0.420502	0.0125901	0
    Cd(f):	0.224096	0.217524	0.00657198	0
    Cd(r):	0.208997	0.202978	0.00601811	0
    Cl:	0.048787	0.0488169	-2.99372e-05	0
    Cl(f):	0.199774	0.194268	0.0055062	0
    Cl(r):	-0.150987	-0.145451	-0.00553613	0
    CmPitch:	0.175381	0.16986	0.00552117	0
    CmRoll:	0.00754967	0.00727273	0.000276934	0
    CmYaw:	-0.00993903	-0.00971275	-0.000226282	0
    Cs:	-0.0257263	-0.0253634	-0.000362964	0
    Cs(f):	-0.0228022	-0.0223944	-0.000407764	0
    Cs(r):	-0.00292414	-0.00296894	4.48003e-05	0

    writing force and moment coefficient files.

Time = 17

smoothSolver:  Solving for Ux, Initial residual = 0.00326071, Final residual = 0.000244038, No Iterations 8
smoothSolver:  Solving for Uy, Initial residual = 0.0657969, Final residual = 0.00541414, No Iterations 7
smoothSolver:  Solving for Uz, Initial residual = 0.0710467, Final residual = 0.00589768, No Iterations 7
GAMG:  Solving for p, Initial residual = 0.0209188, Final residual = 0.00010241, No Iterations 4
time step continuity errors : sum local = 0.000220048, global = 4.32921e-06, cumulative = 0.000215244
smoothSolver:  Solving for omega, Initial residual = 0.000553311, Final residual = 4.22714e-05, No Iterations 3
smoothSolver:  Solving for k, Initial residual = 0.00464666, Final residual = 0.000398367, No Iterations 3
ExecutionTime = 35.908 s  ClockTime = 36 s

forceCoeffs forceCoeffs1 write:
    Coefficient	Total	Pressure	Viscous	Internal
    Cd:	0.430438	0.417737	0.0127011	0
    Cd(f):	0.222308	0.215683	0.00662491	0
    Cd(r):	0.20813	0.202054	0.00607621	0
    Cl:	0.0527233	0.05278	-5.66785e-05	0
    Cl(f):	0.201836	0.196313	0.00552298	0
    Cl(r):	-0.149112	-0.143533	-0.00557966	0
    CmPitch:	0.175474	0.169923	0.00555132	0
    CmRoll:	0.00708902	0.00681467	0.000274351	0
    CmYaw:	-0.0105622	-0.0103187	-0.000243564	0
    Cs:	-0.0249886	-0.0246211	-0.00036755	0
    Cs(f):	-0.0230565	-0.0226292	-0.000427339	0
    Cs(r):	-0.00193211	-0.0019919	5.97893e-05	0

    writing force and moment coefficient files.

Time = 18

smoothSolver:  Solving for Ux, Initial residual = 0.00307283, Final residual = 0.000231382, No Iterations 8
smoothSolver:  Solving for Uy, Initial residual = 0.0613327, Final residual = 0.00505577, No Iterations 7
smoothSolver:  Solving for Uz, Initial residual = 0.0653231, Final residual = 0.00538472, No Iterations 7
GAMG:  Solving for p, Initial residual = 0.0200115, Final residual = 9.37261e-05, No Iterations 4
time step continuity errors : sum local = 0.000202039, global = 2.52891e-06, cumulative = 0.000217772
smoothSolver:  Solving for omega, Initial residual = 0.000527668, Final residual = 3.99423e-05, No Iterations 3
smoothSolver:  Solving for k, Initial residual = 0.00451939, Final residual = 0.000386324, No Iterations 3
ExecutionTime = 38.052 s  ClockTime = 38 s

forceCoeffs forceCoeffs1 write:
    Coefficient	Total	Pressure	Viscous	Internal
    Cd:	0.429209	0.416401	0.0128085	0
    Cd(f):	0.220863	0.214192	0.0066711	0
    Cd(r):	0.208346	0.202209	0.0061374	0
    Cl:	0.0546408	0.0547191	-7.82691e-05	0
    Cl(f):	0.203383	0.197836	0.00554683	0
    Cl(r):	-0.148742	-0.143117	-0.0056251	0
    CmPitch:	0.176062	0.170476	0.00558596	0
    CmRoll:	0.00625849	0.00599165	0.000266848	0
    CmYaw:	-0.0107544	-0.0104862	-0.0002682	0
    Cs:	-0.0231283	-0.0227677	-0.000360582	0
    Cs(f):	-0.0223186	-0.0218701	-0.000448492	0
    Cs(r):	-0.000809684	-0.000897593	8.79094e-05	0

    writing force and moment coefficient files.

Time = 19

smoothSolver:  Solving for Ux, Initial residual = 0.00290244, Final residual = 0.000219255, No Iterations 8
smoothSolver:  Solving for Uy, Initial residual = 0.0574769, Final residual = 0.00472389, No Iterations 7
smoothSolver:  Solving for Uz, Initial residual = 0.0611578, Final residual = 0.00506458, No Iterations 7
GAMG:  Solving for p, Initial residual = 0.0192133, Final residual = 8.85716e-05, No Iterations 4
time step continuity errors : sum local = 0.00019126, global = -1.28761e-06, cumulative = 0.000216485
smoothSolver:  Solving for omega, Initial residual = 0.000502497, Final residual = 3.7832e-05, No Iterations 3
smoothSolver:  Solving for k, Initial residual = 0.00440911, Final residual = 0.000377363, No Iterations 3
ExecutionTime = 40.452 s  ClockTime = 40 s

forceCoeffs forceCoeffs1 write:
    Coefficient	Total	Pressure	Viscous	Internal
    Cd:	0.428825	0.41592	0.0129049	0
    Cd(f):	0.219537	0.212823	0.00671445	0
    Cd(r):	0.209288	0.203097	0.00619049	0
    Cl:	0.0549295	0.0550244	-9.48521e-05	0
    Cl(f):	0.20443	0.198856	0.00557332	0
    Cl(r):	-0.1495	-0.143832	-0.00566818	0
    CmPitch:	0.176965	0.171344	0.00562075	0
    CmRoll:	0.00512481	0.00486282	0.000261983	0
    CmYaw:	-0.0100076	-0.00971906	-0.000288548	0
    Cs:	-0.0201608	-0.0198036	-0.000357207	0
    Cs(f):	-0.020088	-0.0196209	-0.000467152	0
    Cs(r):	-7.27855e-05	-0.00018273	0.000109944	0

    writing force and moment coefficient files.

Time = 20

smoothSolver:  Solving for Ux, Initial residual = 0.00276113, Final residual = 0.00020839, No Iterations 8
smoothSolver:  Solving for Uy, Initial residual = 0.0545379, Final residual = 0.0044742, No Iterations 7
smoothSolver:  Solving for Uz, Initial residual = 0.0584611, Final residual = 0.00485324, No Iterations 7
GAMG:  Solving for p, Initial residual = 0.0186581, Final residual = 8.81144e-05, No Iterations 4
time step continuity errors : sum local = 0.000190085, global = -4.44839e-06, cumulative = 0.000212036
smoothSolver:  Solving for omega, Initial residual = 0.000478157, Final residual = 3.58169e-05, No Iterations 3
smoothSolver:  Solving for k, Initial residual = 0.0043283, Final residual = 0.000367991, No Iterations 3
ExecutionTime = 42.539 s  ClockTime = 42 s

forceCoeffs forceCoeffs1 write:
    Coefficient	Total	Pressure	Viscous	Internal
    Cd:	0.428777	0.415789	0.0129883	0
    Cd(f):	0.21831	0.211562	0.00674797	0
    Cd(r):	0.210468	0.204227	0.00624033	0
    Cl:	0.054154	0.0542472	-9.31601e-05	0
    Cl(f):	0.204915	0.199309	0.00560587	0
    Cl(r):	-0.150761	-0.145062	-0.00569903	0
    CmPitch:	0.177838	0.172186	0.00565245	0
    CmRoll:	0.00392097	0.00366716	0.000253818	0
    CmYaw:	-0.00827176	-0.00796657	-0.00030519	0
    Cs:	-0.016635	-0.0162871	-0.000347903	0
    Cs(f):	-0.0165893	-0.0161101	-0.000479141	0
    Cs(r):	-4.57434e-05	-0.000176981	0.000131238	0

    writing force and moment coefficient files.

Time = 21

smoothSolver:  Solving for Ux, Initial residual = 0.00264463, Final residual = 0.000199368, No Iterations 8
smoothSolver:  Solving for Uy, Initial residual = 0.05232, Final residual = 0.00432662, No Iterations 7
smoothSolver:  Solving for Uz, Initial residual = 0.0566383, Final residual = 0.00475543, No Iterations 7
GAMG:  Solving for p, Initial residual = 0.0180705, Final residual = 8.96386e-05, No Iterations 4
time step continuity errors : sum local = 0.000192602, global = -5.06855e-06, cumulative = 0.000206968
smoothSolver:  Solving for omega, Initial residual = 0.000453096, Final residual = 3.38432e-05, No Iterations 3
smoothSolver:  Solving for k, Initial residual = 0.004231, Final residual = 0.000358388, No Iterations 3
ExecutionTime = 44.638 s  ClockTime = 45 s

forceCoeffs forceCoeffs1 write:
    Coefficient	Total	Pressure	Viscous	Internal
    Cd:	0.428364	0.41531	0.0130534	0
    Cd(f):	0.217102	0.210329	0.00677239	0
    Cd(r):	0.211262	0.204981	0.00628102	0
    Cl:	0.0529653	0.0530353	-6.9991e-05	0
    Cl(f):	0.204664	0.199027	0.0056375	0
    Cl(r):	-0.151699	-0.145991	-0.00570749	0
    CmPitch:	0.178181	0.172509	0.00567249	0
    CmRoll:	0.00291989	0.0026742	0.000245685	0
    CmYaw:	-0.00566165	-0.0053425	-0.000319152	0
    Cs:	-0.0131132	-0.0127654	-0.000347765	0
    Cs(f):	-0.0122182	-0.0117252	-0.000493035	0
    Cs(r):	-0.00089494	-0.00104021	0.000145269	0

    writing force and moment coefficient files.

Time = 22

smoothSolver:  Solving for Ux, Initial residual = 0.00254264, Final residual = 0.000191247, No Iterations 8
smoothSolver:  Solving for Uy, Initial residual = 0.0506288, Final residual = 0.00424402, No Iterations 7
smoothSolver:  Solving for Uz, Initial residual = 0.0550047, Final residual = 0.00466972, No Iterations 7
GAMG:  Solving for p, Initial residual = 0.0174125, Final residual = 8.96471e-05, No Iterations 4
time step continuity errors : sum local = 0.00019158, global = -3.74818e-06, cumulative = 0.00020322
smoothSolver:  Solving for omega, Initial residual = 0.000428691, Final residual = 3.19822e-05, No Iterations 3
smoothSolver:  Solving for k, Initial residual = 0.00410553, Final residual = 0.000349755, No Iterations 3
ExecutionTime = 46.792 s  ClockTime = 47 s

forceCoeffs forceCoeffs1 write:
    Coefficient	Total	Pressure	Viscous	Internal
    Cd:	0.427743	0.414612	0.0131308	0
    Cd(f):	0.216033	0.209236	0.00679751	0
    Cd(r):	0.21171	0.205376	0.00633329	0
    Cl:	0.0522619	0.0523112	-4.92839e-05	0
    Cl(f):	0.203868	0.198192	0.00567633	0
    Cl(r):	-0.151606	-0.145881	-0.00572561	0
    CmPitch:	0.177737	0.172036	0.00570097	0
    CmRoll:	0.00216176	0.00192965	0.000232111	0
    CmYaw:	-0.0027354	-0.00240763	-0.000327775	0
    Cs:	-0.0099216	-0.00958541	-0.000336187	0
    Cs(f):	-0.0076962	-0.00720034	-0.000495868	0
    Cs(r):	-0.0022254	-0.00238508	0.000159681	0

    writing force and moment coefficient files.

Time = 23

smoothSolver:  Solving for Ux, Initial residual = 0.00243904, Final residual = 0.000184296, No Iterations 8
smoothSolver:  Solving for Uy, Initial residual = 0.0492309, Final residual = 0.00420237, No Iterations 7
smoothSolver:  Solving for Uz, Initial residual = 0.0529663, Final residual = 0.00455797, No Iterations 7
GAMG:  Solving for p, Initial residual = 0.0166823, Final residual = 8.66559e-05, No Iterations 4
time step continuity errors : sum local = 0.000184215, global = -2.34333e-06, cumulative = 0.000200876
smoothSolver:  Solving for omega, Initial residual = 0.000404138, Final residual = 3.01104e-05, No Iterations 3
smoothSolver:  Solving for k, Initial residual = 0.00394085, Final residual = 0.000341014, No Iterations 3
ExecutionTime = 48.955 s  ClockTime = 49 s

forceCoeffs forceCoeffs1 write:
    Coefficient	Total	Pressure	Viscous	Internal
    Cd:	0.426518	0.413306	0.0132114	0
    Cd(f):	0.214672	0.20785	0.00682238	0
    Cd(r):	0.211845	0.205456	0.00638904	0
    Cl:	0.0524702	0.05251	-3.9804e-05	0
    Cl(f):	0.202529	0.196822	0.00570708	0
    Cl(r):	-0.150059	-0.144312	-0.00574688	0
    CmPitch:	0.176294	0.170567	0.00572698	0
    CmRoll:	0.00141354	0.00119687	0.000216671	0
    CmYaw:	1.41797e-05	0.000341413	-0.000327233	0
    Cs:	-0.00689807	-0.00659339	-0.000304685	0
    Cs(f):	-0.00343486	-0.00295528	-0.000479576	0
    Cs(r):	-0.00346322	-0.00363811	0.000174891	0

    writing force and moment coefficient files.

Time = 24

smoothSolver:  Solving for Ux, Initial residual = 0.00234375, Final residual = 0.000178309, No Iterations 8
smoothSolver:  Solving for Uy, Initial residual = 0.0479159, Final residual = 0.0041472, No Iterations 7
smoothSolver:  Solving for Uz, Initial residual = 0.0509732, Final residual = 0.00442649, No Iterations 7
GAMG:  Solving for p, Initial residual = 0.0160317, Final residual = 8.12299e-05, No Iterations 4
time step continuity errors : sum local = 0.000171816, global = -1.8951e-06, cumulative = 0.000198981
smoothSolver:  Solving for omega, Initial residual = 0.000380924, Final residual = 2.8414e-05, No Iterations 3
smoothSolver:  Solving for k, Initial residual = 0.00381329, Final residual = 0.0003331, No Iterations 3
ExecutionTime = 50.826 s  ClockTime = 51 s

forceCoeffs forceCoeffs1 write:
    Coefficient	Total	Pressure	Viscous	Internal
    Cd:	0.424769	0.411479	0.0132907	0
    Cd(f):	0.21304	0.206191	0.00684919	0
    Cd(r):	0.211729	0.205288	0.00644152	0
    Cl:	0.0535773	0.0536104	-3.30713e-05	0
    Cl(f):	0.200839	0.195099	0.0057404	0
    Cl(r):	-0.147262	-0.141489	-0.00577347	0
    CmPitch:	0.174051	0.168294	0.00575694	0
    CmRoll:	0.000655423	0.000451589	0.000203835	0
    CmYaw:	0.00206687	0.00238923	-0.000322356	0
    Cs:	-0.00448385	-0.00421252	-0.00027132	0
    Cs(f):	-0.000175052	0.000282963	-0.000458016	0
    Cs(r):	-0.00430879	-0.00449549	0.000186695	0

    writing force and moment coefficient files.

Time = 25

smoothSolver:  Solving for Ux, Initial residual = 0.00225845, Final residual = 0.000171256, No Iterations 8
smoothSolver:  Solving for Uy, Initial residual = 0.0464057, Final residual = 0.00399984, No Iterations 7
smoothSolver:  Solving for Uz, Initial residual = 0.0489646, Final residual = 0.00424325, No Iterations 7
GAMG:  Solving for p, Initial residual = 0.0154273, Final residual = 7.48195e-05, No Iterations 4
time step continuity errors : sum local = 0.000157242, global = -1.99614e-06, cumulative = 0.000196985
smoothSolver:  Solving for omega, Initial residual = 0.000360663, Final residual = 2.711e-05, No Iterations 3
smoothSolver:  Solving for k, Initial residual = 0.00371886, Final residual = 0.000327144, No Iterations 3
ExecutionTime = 52.398 s  ClockTime = 52 s

forceCoeffs forceCoeffs1 write:
    Coefficient	Total	Pressure	Viscous	Internal
    Cd:	0.422679	0.409313	0.0133654	0
    Cd(f):	0.211402	0.204524	0.00687873	0
    Cd(r):	0.211276	0.20479	0.00648663	0
    Cl:	0.0551965	0.0552265	-3.00386e-05	0
    Cl(f):	0.199025	0.193254	0.0057717	0
    Cl(r):	-0.143829	-0.138027	-0.00580174	0
    CmPitch:	0.171427	0.16564	0.00578672	0
    CmRoll:	6.2962e-05	-0.000133086	0.000196048	0
    CmYaw:	0.0032241	0.00354145	-0.000317353	0
    Cs:	-0.00297957	-0.00273513	-0.000244443	0
    Cs(f):	0.00173431	0.00217389	-0.000439574	0
    Cs(r):	-0.00471388	-0.00490902	0.000195131	0

    writing force and moment coefficient files.

Time = 26

smoothSolver:  Solving for Ux, Initial residual = 0.00216363, Final residual = 0.000163768, No Iterations 8
smoothSolver:  Solving for Uy, Initial residual = 0.0440796, Final residual = 0.00376839, No Iterations 7
smoothSolver:  Solving for Uz, Initial residual = 0.0465766, Final residual = 0.00401692, No Iterations 7
GAMG:  Solving for p, Initial residual = 0.0147922, Final residual = 6.96653e-05, No Iterations 4
time step continuity errors : sum local = 0.000145393, global = -2.54591e-06, cumulative = 0.000194439
smoothSolver:  Solving for omega, Initial residual = 0.000343004, Final residual = 2.60845e-05, No Iterations 3
smoothSolver:  Solving for k, Initial residual = 0.00361095, Final residual = 0.000320692, No Iterations 3
ExecutionTime = 54.167 s  ClockTime = 54 s

forceCoeffs forceCoeffs1 write:
    Coefficient	Total	Pressure	Viscous	Internal
    Cd:	0.420933	0.407475	0.0134578	0
    Cd(f):	0.210188	0.203264	0.00692439	0
    Cd(r):	0.210745	0.204211	0.00653345	0
    Cl:	0.0569813	0.057005	-2.37081e-05	0
    Cl(f):	0.197486	0.191676	0.00581008	0
    Cl(r):	-0.140504	-0.134671	-0.00583378	0
    CmPitch:	0.168995	0.163173	0.00582193	0
    CmRoll:	-0.000278196	-0.000473663	0.000195467	0
    CmYaw:	0.00357589	0.00389079	-0.000314895	0
    Cs:	-0.00262905	-0.0023953	-0.000233753	0
    Cs(f):	0.00226137	0.00269314	-0.000431772	0
    Cs(r):	-0.00489042	-0.00508844	0.000198019	0

    writing force and moment coefficient files.

Time = 27

smoothSolver:  Solving for Ux, Initial residual = 0.00204735, Final residual = 0.000155834, No Iterations 8
smoothSolver:  Solving for Uy, Initial residual = 0.0413728, Final residual = 0.00351828, No Iterations 7
smoothSolver:  Solving for Uz, Initial residual = 0.0435994, Final residual = 0.00371989, No Iterations 7
GAMG:  Solving for p, Initial residual = 0.0141814, Final residual = 6.58522e-05, No Iterations 4
time step continuity errors : sum local = 0.000136386, global = -3.0924e-06, cumulative = 0.000191347
smoothSolver:  Solving for omega, Initial residual = 0.000327596, Final residual = 2.51184e-05, No Iterations 3
smoothSolver:  Solving for k, Initial residual = 0.00351548, Final residual = 0.000315185, No Iterations 3
ExecutionTime = 55.979 s  ClockTime = 56 s

forceCoeffs forceCoeffs1 write:
    Coefficient	Total	Pressure	Viscous	Internal
    Cd:	0.419335	0.40579	0.0135448	0
    Cd(f):	0.209195	0.202226	0.00696923	0
    Cd(r):	0.21014	0.203564	0.00657559	0
    Cl:	0.0586315	0.0586662	-3.46112e-05	0
    Cl(f):	0.196194	0.190355	0.00583845	0
    Cl(r):	-0.137562	-0.131689	-0.00587306	0
    CmPitch:	0.166878	0.161022	0.00585575	0
    CmRoll:	-0.000472314	-0.000669136	0.000196823	0
    CmYaw:	0.00333924	0.00365383	-0.000314592	0
    Cs:	-0.00317572	-0.00293984	-0.000235878	0
    Cs(f):	0.00175138	0.00218391	-0.000432531	0
    Cs(r):	-0.0049271	-0.00512375	0.000196653	0

    writing force and moment coefficient files.

Time = 28

smoothSolver:  Solving for Ux, Initial residual = 0.00193234, Final residual = 0.000148058, No Iterations 8
smoothSolver:  Solving for Uy, Initial residual = 0.0386789, Final residual = 0.00327378, No Iterations 7
smoothSolver:  Solving for Uz, Initial residual = 0.040403, Final residual = 0.00339607, No Iterations 7
GAMG:  Solving for p, Initial residual = 0.0136479, Final residual = 6.34197e-05, No Iterations 4
time step continuity errors : sum local = 0.000130334, global = -3.5099e-06, cumulative = 0.000187837
smoothSolver:  Solving for omega, Initial residual = 0.000314204, Final residual = 2.41458e-05, No Iterations 3
smoothSolver:  Solving for k, Initial residual = 0.00343274, Final residual = 0.000309018, No Iterations 3
ExecutionTime = 57.934 s  ClockTime = 58 s

forceCoeffs forceCoeffs1 write:
    Coefficient	Total	Pressure	Viscous	Internal
    Cd:	0.418145	0.404513	0.0136317	0
    Cd(f):	0.208219	0.201209	0.00701065	0
    Cd(r):	0.209925	0.203304	0.00662103	0
    Cl:	0.0599971	0.0600372	-4.00407e-05	0
    Cl(f):	0.195288	0.189422	0.00586558	0
    Cl(r):	-0.135291	-0.129385	-0.00590562	0
    CmPitch:	0.165289	0.159404	0.0058856	0
    CmRoll:	-0.00085301	-0.00104782	0.00019481	0
    CmYaw:	0.00279281	0.00310954	-0.000316736	0
    Cs:	-0.00363049	-0.00339168	-0.000238816	0
    Cs(f):	0.000977562	0.00141371	-0.000436143	0
    Cs(r):	-0.00460805	-0.00480538	0.000197328	0

    writing force and moment coefficient files.

Time = 29

smoothSolver:  Solving for Ux, Initial residual = 0.00182103, Final residual = 0.000140389, No Iterations 8
smoothSolver:  Solving for Uy, Initial residual = 0.0362343, Final residual = 0.00304562, No Iterations 7
smoothSolver:  Solving for Uz, Initial residual = 0.0374548, Final residual = 0.00311992, No Iterations 7
GAMG:  Solving for p, Initial residual = 0.013169, Final residual = 6.19904e-05, No Iterations 4
time step continuity errors : sum local = 0.000126396, global = -3.8565e-06, cumulative = 0.00018398
smoothSolver:  Solving for omega, Initial residual = 0.000301194, Final residual = 2.31928e-05, No Iterations 3
smoothSolver:  Solving for k, Initial residual = 0.00337133, Final residual = 0.000302279, No Iterations 3
ExecutionTime = 59.613 s  ClockTime = 60 s

forceCoeffs forceCoeffs1 write:
    Coefficient	Total	Pressure	Viscous	Internal
    Cd:	0.41718	0.403472	0.0137077	0
    Cd(f):	0.207186	0.200143	0.00704325	0
    Cd(r):	0.209994	0.20333	0.00666441	0
    Cl:	0.0611234	0.0611714	-4.80301e-05	0
    Cl(f):	0.194775	0.188889	0.00588663	0
    Cl(r):	-0.133652	-0.127717	-0.00593466	0
    CmPitch:	0.164214	0.158303	0.00591065	0
    CmRoll:	-0.00140407	-0.00159349	0.000189417	0
    CmYaw:	0.00229737	0.00261528	-0.000317907	0
    Cs:	-0.00366388	-0.00342722	-0.000236658	0
    Cs(f):	0.00046543	0.000901666	-0.000436236	0
    Cs(r):	-0.00412931	-0.00432889	0.000199578	0

    writing force and moment coefficient files.

Time = 30

smoothSolver:  Solving for Ux, Initial residual = 0.00172154, Final residual = 0.000132012, No Iterations 8
smoothSolver:  Solving for Uy, Initial residual = 0.0340765, Final residual = 0.00282887, No Iterations 7
smoothSolver:  Solving for Uz, Initial residual = 0.034888, Final residual = 0.00289026, No Iterations 7
GAMG:  Solving for p, Initial residual = 0.0126772, Final residual = 6.02078e-05, No Iterations 4
time step continuity errors : sum local = 0.000121864, global = -4.12388e-06, cumulative = 0.000179857
smoothSolver:  Solving for omega, Initial residual = 0.000288321, Final residual = 2.22999e-05, No Iterations 3
smoothSolver:  Solving for k, Initial residual = 0.00329115, Final residual = 0.000295935, No Iterations 3
ExecutionTime = 61.318 s  ClockTime = 61 s

forceCoeffs forceCoeffs1 write:
    Coefficient	Total	Pressure	Viscous	Internal
    Cd:	0.416598	0.402826	0.0137729	0
    Cd(f):	0.206175	0.199105	0.00707034	0
    Cd(r):	0.210423	0.203721	0.00670258	0
    Cl:	0.0619966	0.0620471	-5.05057e-05	0
    Cl(f):	0.194596	0.188688	0.00590774	0
    Cl(r):	-0.132599	-0.126641	-0.00595825	0
    CmPitch:	0.163598	0.157665	0.005933	0
    CmRoll:	-0.00212417	-0.00230805	0.00018388	0
    CmYaw:	0.00216075	0.00247856	-0.000317809	0
    Cs:	-0.00306168	-0.00283155	-0.00023013	0
    Cs(f):	0.000629912	0.00106279	-0.000432874	0
    Cs(r):	-0.00369159	-0.00389433	0.000202744	0

    writing force and moment coefficient files.

Time = 31

smoothSolver:  Solving for Ux, Initial residual = 0.00161968, Final residual = 0.000122918, No Iterations 8
smoothSolver:  Solving for Uy, Initial residual = 0.0321381, Final residual = 0.0026267, No Iterations 7
smoothSolver:  Solving for Uz, Initial residual = 0.0326433, Final residual = 0.00265882, No Iterations 7
GAMG:  Solving for p, Initial residual = 0.0122145, Final residual = 5.74644e-05, No Iterations 4
time step continuity errors : sum local = 0.000115534, global = -4.35152e-06, cumulative = 0.000175505
smoothSolver:  Solving for omega, Initial residual = 0.000277388, Final residual = 2.14358e-05, No Iterations 3
smoothSolver:  Solving for k, Initial residual = 0.00320208, Final residual = 0.000288756, No Iterations 3
ExecutionTime = 63.136 s  ClockTime = 63 s

forceCoeffs forceCoeffs1 write:
    Coefficient	Total	Pressure	Viscous	Internal
    Cd:	0.416313	0.402496	0.0138177	0
    Cd(f):	0.205223	0.198137	0.00708593	0
    Cd(r):	0.21109	0.204358	0.00673174	0
    Cl:	0.0627362	0.0627853	-4.90823e-05	0
    Cl(f):	0.19464	0.188717	0.00592298	0
    Cl(r):	-0.131904	-0.125932	-0.00597206	0
    CmPitch:	0.163272	0.157324	0.00594752	0
    CmRoll:	-0.00293343	-0.00311053	0.000177095	0
    CmYaw:	0.00248893	0.00280364	-0.000314705	0
    Cs:	-0.00175668	-0.0015393	-0.000217387	0
    Cs(f):	0.00161059	0.00203399	-0.000423398	0
    Cs(r):	-0.00336728	-0.00357329	0.000206011	0

    writing force and moment coefficient files.

Time = 32

smoothSolver:  Solving for Ux, Initial residual = 0.00152276, Final residual = 0.000113739, No Iterations 8
smoothSolver:  Solving for Uy, Initial residual = 0.0303097, Final residual = 0.00243795, No Iterations 7
smoothSolver:  Solving for Uz, Initial residual = 0.0307007, Final residual = 0.00246248, No Iterations 7
GAMG:  Solving for p, Initial residual = 0.0117952, Final residual = 5.3902e-05, No Iterations 4
time step continuity errors : sum local = 0.000107691, global = -4.40434e-06, cumulative = 0.000171101
smoothSolver:  Solving for omega, Initial residual = 0.000265827, Final residual = 2.0485e-05, No Iterations 3
smoothSolver:  Solving for k, Initial residual = 0.00309111, Final residual = 0.000280903, No Iterations 3
ExecutionTime = 65.031 s  ClockTime = 65 s

forceCoeffs forceCoeffs1 write:
    Coefficient	Total	Pressure	Viscous	Internal
    Cd:	0.416088	0.402229	0.0138588	0
    Cd(f):	0.204379	0.197283	0.00709641	0
    Cd(r):	0.211709	0.204946	0.00676234	0
    Cl:	0.0635265	0.0635665	-3.9959e-05	0
    Cl(f):	0.194725	0.188785	0.00594	0
    Cl(r):	-0.131198	-0.125218	-0.00597996	0
    CmPitch:	0.162962	0.157002	0.00595998	0
    CmRoll:	-0.00366483	-0.00383187	0.000167034	0
    CmYaw:	0.00299934	0.00330326	-0.00030392	0
    Cs:	-0.000227073	-2.84529e-05	-0.00019862	0
    Cs(f):	0.00288581	0.00328904	-0.00040323	0
    Cs(r):	-0.00311288	-0.00331749	0.00020461	0

    writing force and moment coefficient files.

Time = 33

smoothSolver:  Solving for Ux, Initial residual = 0.00143254, Final residual = 0.000141247, No Iterations 7
smoothSolver:  Solving for Uy, Initial residual = 0.0289611, Final residual = 0.00230033, No Iterations 7
smoothSolver:  Solving for Uz, Initial residual = 0.0289261, Final residual = 0.00230026, No Iterations 7
GAMG:  Solving for p, Initial residual = 0.0113979, Final residual = 5.10013e-05, No Iterations 4
time step continuity errors : sum local = 0.000101318, global = -4.02206e-06, cumulative = 0.000167079
smoothSolver:  Solving for omega, Initial residual = 0.000253451, Final residual = 1.94294e-05, No Iterations 3
smoothSolver:  Solving for k, Initial residual = 0.00297736, Final residual = 0.000272208, No Iterations 3
ExecutionTime = 66.855 s  ClockTime = 67 s

forceCoeffs forceCoeffs1 write:
    Coefficient	Total	Pressure	Viscous	Internal
    Cd:	0.415856	0.401957	0.0138987	0
    Cd(f):	0.203643	0.196539	0.00710357	0
    Cd(r):	0.212213	0.205417	0.0067951	0
    Cl:	0.0642061	0.0642364	-3.02486e-05	0
    Cl(f):	0.194796	0.188834	0.00596173	0
    Cl(r):	-0.13059	-0.124598	-0.00599198	0
    CmPitch:	0.162693	0.156716	0.00597686	0
    CmRoll:	-0.00428484	-0.00443907	0.000154233	0
    CmYaw:	0.00342666	0.00371365	-0.00028699	0
    Cs:	0.00113232	0.00130345	-0.000171125	0
    Cs(f):	0.00399283	0.00436538	-0.000372552	0
    Cs(r):	-0.0028605	-0.00306193	0.000201427	0

    writing force and moment coefficient files.

Time = 34

smoothSolver:  Solving for Ux, Initial residual = 0.00135736, Final residual = 0.000132353, No Iterations 7
smoothSolver:  Solving for Uy, Initial residual = 0.0280029, Final residual = 0.00220591, No Iterations 7
smoothSolver:  Solving for Uz, Initial residual = 0.0274925, Final residual = 0.0021421, No Iterations 7
GAMG:  Solving for p, Initial residual = 0.0110219, Final residual = 4.80417e-05, No Iterations 4
time step continuity errors : sum local = 9.4994e-05, global = -3.58699e-06, cumulative = 0.000163492
smoothSolver:  Solving for omega, Initial residual = 0.00024314, Final residual = 1.84758e-05, No Iterations 3
smoothSolver:  Solving for k, Initial residual = 0.00288424, Final residual = 0.000263357, No Iterations 3
ExecutionTime = 68.449 s  ClockTime = 68 s

forceCoeffs forceCoeffs1 write:
    Coefficient	Total	Pressure	Viscous	Internal
    Cd:	0.415545	0.401605	0.0139401	0
    Cd(f):	0.202935	0.195829	0.00710567	0
    Cd(r):	0.21261	0.205776	0.00683439	0
    Cl:	0.0648917	0.0649121	-2.03976e-05	0
    Cl(f):	0.194806	0.188824	0.00598268	0
    Cl(r):	-0.129915	-0.123912	-0.00600308	0
    CmPitch:	0.16236	0.156368	0.00599288	0
    CmRoll:	-0.00483761	-0.00497326	0.000135643	0
    CmYaw:	0.00367625	0.00394346	-0.000267216	0
    Cs:	0.00207851	0.00221632	-0.000137808	0
    Cs(f):	0.0047155	0.00505162	-0.00033612	0
    Cs(r):	-0.00263699	-0.0028353	0.000198312	0

    writing force and moment coefficient files.

Time = 35

smoothSolver:  Solving for Ux, Initial residual = 0.00129576, Final residual = 0.00012487, No Iterations 7
smoothSolver:  Solving for Uy, Initial residual = 0.0273938, Final residual = 0.00213454, No Iterations 7
smoothSolver:  Solving for Uz, Initial residual = 0.0262445, Final residual = 0.00200108, No Iterations 7
GAMG:  Solving for p, Initial residual = 0.0106645, Final residual = 4.46714e-05, No Iterations 4
time step continuity errors : sum local = 8.79366e-05, global = -3.08419e-06, cumulative = 0.000160407
smoothSolver:  Solving for omega, Initial residual = 0.000234465, Final residual = 1.76015e-05, No Iterations 3
smoothSolver:  Solving for k, Initial residual = 0.00280754, Final residual = 0.000255514, No Iterations 3
ExecutionTime = 70.232 s  ClockTime = 70 s

forceCoeffs forceCoeffs1 write:
    Coefficient	Total	Pressure	Viscous	Internal
    Cd:	0.415132	0.401139	0.0139923	0
    Cd(f):	0.202174	0.195064	0.00711068	0
    Cd(r):	0.212957	0.206076	0.00688158	0
    Cl:	0.0655479	0.0655679	-2.00292e-05	0
    Cl(f):	0.194696	0.188693	0.00600329	0
    Cl(r):	-0.129148	-0.123125	-0.00602331	0
    CmPitch:	0.161922	0.155909	0.0060133	0
    CmRoll:	-0.0053916	-0.00550615	0.00011455	0
    CmYaw:	0.00369843	0.00394854	-0.000250118	0
    Cs:	0.00274041	0.00284481	-0.000104403	0
    Cs(f):	0.00506863	0.00537095	-0.000302319	0
    Cs(r):	-0.00232822	-0.00252614	0.000197916	0

    writing force and moment coefficient files.

Time = 36

smoothSolver:  Solving for Ux, Initial residual = 0.00124196, Final residual = 0.000118459, No Iterations 7
smoothSolver:  Solving for Uy, Initial residual = 0.0268054, Final residual = 0.00206306, No Iterations 7
smoothSolver:  Solving for Uz, Initial residual = 0.0249534, Final residual = 0.00186742, No Iterations 7
GAMG:  Solving for p, Initial residual = 0.0102948, Final residual = 4.1705e-05, No Iterations 4
time step continuity errors : sum local = 8.17657e-05, global = -2.58355e-06, cumulative = 0.000157824
smoothSolver:  Solving for omega, Initial residual = 0.000225906, Final residual = 1.6731e-05, No Iterations 3
smoothSolver:  Solving for k, Initial residual = 0.00272617, Final residual = 0.000247825, No Iterations 3
ExecutionTime = 72.003 s  ClockTime = 72 s

forceCoeffs forceCoeffs1 write:
    Coefficient	Total	Pressure	Viscous	Internal
    Cd:	0.414562	0.400512	0.0140499	0
    Cd(f):	0.201329	0.194208	0.00712117	0
    Cd(r):	0.213233	0.206304	0.0069287	0
    Cl:	0.066367	0.0663796	-1.26645e-05	0
    Cl(f):	0.194526	0.188501	0.0060248	0
    Cl(r):	-0.128159	-0.122121	-0.00603746	0
    CmPitch:	0.161342	0.155311	0.00603113	0
    CmRoll:	-0.00595162	-0.00604786	9.62378e-05	0
    CmYaw:	0.00359958	0.00383547	-0.000235892	0
    Cs:	0.00324274	0.00332297	-8.02304e-05	0
    Cs(f):	0.00522095	0.00549696	-0.000276007	0
    Cs(r):	-0.00197821	-0.00217399	0.000195777	0

    writing force and moment coefficient files.

Time = 37

smoothSolver:  Solving for Ux, Initial residual = 0.00118614, Final residual = 0.000111923, No Iterations 7
smoothSolver:  Solving for Uy, Initial residual = 0.0260085, Final residual = 0.00197467, No Iterations 7
smoothSolver:  Solving for Uz, Initial residual = 0.0235792, Final residual = 0.00173698, No Iterations 7
GAMG:  Solving for p, Initial residual = 0.00991219, Final residual = 3.99408e-05, No Iterations 4
time step continuity errors : sum local = 7.80126e-05, global = -2.05019e-06, cumulative = 0.000155774
smoothSolver:  Solving for omega, Initial residual = 0.000215638, Final residual = 1.59213e-05, No Iterations 3
smoothSolver:  Solving for k, Initial residual = 0.00264362, Final residual = 0.000240051, No Iterations 3
ExecutionTime = 73.786 s  ClockTime = 74 s

forceCoeffs forceCoeffs1 write:
    Coefficient	Total	Pressure	Viscous	Internal
    Cd:	0.413906	0.399791	0.014115	0
    Cd(f):	0.200436	0.193296	0.0071399	0
    Cd(r):	0.21347	0.206495	0.00697508	0
    Cl:	0.067089	0.0670982	-9.17313e-06	0
    Cl(f):	0.194244	0.1882	0.00604399	0
    Cl(r):	-0.127155	-0.121102	-0.00605316	0
    CmPitch:	0.1607	0.154651	0.00604858	0
    CmRoll:	-0.00651692	-0.00659933	8.241e-05	0
    CmYaw:	0.00351982	0.00374626	-0.000226437	0
    Cs:	0.00381681	0.00388093	-6.41249e-05	0
    Cs(f):	0.00542822	0.00568672	-0.000258499	0
    Cs(r):	-0.00161141	-0.00180579	0.000194374	0

    writing force and moment coefficient files.

Time = 38

smoothSolver:  Solving for Ux, Initial residual = 0.0011296, Final residual = 0.000105971, No Iterations 7
smoothSolver:  Solving for Uy, Initial residual = 0.0251867, Final residual = 0.00189244, No Iterations 7
smoothSolver:  Solving for Uz, Initial residual = 0.022213, Final residual = 0.00221449, No Iterations 6
GAMG:  Solving for p, Initial residual = 0.00952961, Final residual = 3.80045e-05, No Iterations 4
time step continuity errors : sum local = 7.39702e-05, global = -1.66404e-06, cumulative = 0.00015411
smoothSolver:  Solving for omega, Initial residual = 0.000206509, Final residual = 1.52118e-05, No Iterations 3
smoothSolver:  Solving for k, Initial residual = 0.00256996, Final residual = 0.000232437, No Iterations 3
ExecutionTime = 75.567 s  ClockTime = 76 s

forceCoeffs forceCoeffs1 write:
    Coefficient	Total	Pressure	Viscous	Internal
    Cd:	0.413066	0.398889	0.0141764	0
    Cd(f):	0.199375	0.192215	0.00716052	0
    Cd(r):	0.21369	0.206674	0.00701584	0
    Cl:	0.0674004	0.0673996	7.97736e-07	0
    Cl(f):	0.193816	0.187752	0.00606398	0
    Cl(r):	-0.126415	-0.120352	-0.00606318	0
    CmPitch:	0.160115	0.154052	0.00606358	0
    CmRoll:	-0.00715754	-0.00722989	7.23422e-05	0
    CmYaw:	0.00353414	0.00374983	-0.000215688	0
    Cs:	0.00472496	0.00477805	-5.30891e-05	0
    Cs(f):	0.00589662	0.00613885	-0.000242232	0
    Cs(r):	-0.00117166	-0.0013608	0.000189143	0

    writing force and moment coefficient files.

Time = 39

smoothSolver:  Solving for Ux, Initial residual = 0.0010723, Final residual = 0.000100249, No Iterations 7
smoothSolver:  Solving for Uy, Initial residual = 0.0243414, Final residual = 0.0018116, No Iterations 7
smoothSolver:  Solving for Uz, Initial residual = 0.0209075, Final residual = 0.00207764, No Iterations 6
GAMG:  Solving for p, Initial residual = 0.00916653, Final residual = 3.75363e-05, No Iterations 4
time step continuity errors : sum local = 7.28329e-05, global = -1.23968e-06, cumulative = 0.00015287
smoothSolver:  Solving for omega, Initial residual = 0.000197193, Final residual = 1.44882e-05, No Iterations 3
smoothSolver:  Solving for k, Initial residual = 0.00248562, Final residual = 0.000224903, No Iterations 3
ExecutionTime = 77.221 s  ClockTime = 77 s

forceCoeffs forceCoeffs1 write:
    Coefficient	Total	Pressure	Viscous	Internal
    Cd:	0.412095	0.397863	0.0142327	0
    Cd(f):	0.198228	0.191047	0.00718125	0
    Cd(r):	0.213868	0.206816	0.00705146	0
    Cl:	0.067246	0.0672432	2.78859e-06	0
    Cl(f):	0.193246	0.187172	0.00607486	0
    Cl(r):	-0.126	-0.119928	-0.00607207	0
    CmPitch:	0.159623	0.15355	0.00607346	0
    CmRoll:	-0.00781992	-0.00788482	6.48935e-05	0
    CmYaw:	0.00363092	0.00383897	-0.000208055	0
    Cs:	0.00591169	0.0059542	-4.25149e-05	0
    Cs(f):	0.00658676	0.00681607	-0.000229312	0
    Cs(r):	-0.000675071	-0.000861869	0.000186797	0

    writing force and moment coefficient files.

Time = 40

smoothSolver:  Solving for Ux, Initial residual = 0.00101585, Final residual = 9.46137e-05, No Iterations 7
smoothSolver:  Solving for Uy, Initial residual = 0.0233851, Final residual = 0.00171921, No Iterations 7
smoothSolver:  Solving for Uz, Initial residual = 0.019753, Final residual = 0.00194824, No Iterations 6
GAMG:  Solving for p, Initial residual = 0.00883567, Final residual = 3.7591e-05, No Iterations 4
time step continuity errors : sum local = 7.27507e-05, global = -9.53196e-07, cumulative = 0.000151917
smoothSolver:  Solving for omega, Initial residual = 0.000187712, Final residual = 1.37614e-05, No Iterations 3
smoothSolver:  Solving for k, Initial residual = 0.00239578, Final residual = 0.000217362, No Iterations 3
ExecutionTime = 78.965 s  ClockTime = 79 s

forceCoeffs forceCoeffs1 write:
    Coefficient	Total	Pressure	Viscous	Internal
    Cd:	0.410991	0.396706	0.0142848	0
    Cd(f):	0.197095	0.189892	0.00720259	0
    Cd(r):	0.213896	0.206814	0.00708221	0
    Cl:	0.0668424	0.0668371	5.33321e-06	0
    Cl(f):	0.192656	0.186572	0.006084	0
    Cl(r):	-0.125813	-0.119734	-0.00607867	0
    CmPitch:	0.159234	0.153153	0.00608134	0
    CmRoll:	-0.0084008	-0.008461	6.0192e-05	0
    CmYaw:	0.00378466	0.00398507	-0.000200405	0
    Cs:	0.00715568	0.00718912	-3.3439e-05	0
    Cs(f):	0.0073625	0.00757963	-0.000217125	0
    Cs(r):	-0.000206825	-0.000390511	0.000183686	0

    writing force and moment coefficient files.

Time = 41

smoothSolver:  Solving for Ux, Initial residual = 0.000963138, Final residual = 8.91818e-05, No Iterations 7
smoothSolver:  Solving for Uy, Initial residual = 0.0224136, Final residual = 0.00221245, No Iterations 6
smoothSolver:  Solving for Uz, Initial residual = 0.0185988, Final residual = 0.0018211, No Iterations 6
GAMG:  Solving for p, Initial residual = 0.00854195, Final residual = 3.7942e-05, No Iterations 4
time step continuity errors : sum local = 7.32588e-05, global = -1.09806e-06, cumulative = 0.000150819
smoothSolver:  Solving for omega, Initial residual = 0.000178033, Final residual = 1.30806e-05, No Iterations 3
smoothSolver:  Solving for k, Initial residual = 0.00230514, Final residual = 0.000210307, No Iterations 3
ExecutionTime = 80.872 s  ClockTime = 81 s

forceCoeffs forceCoeffs1 write:
    Coefficient	Total	Pressure	Viscous	Internal
    Cd:	0.409971	0.395639	0.0143323	0
    Cd(f):	0.196181	0.188955	0.00722639	0
    Cd(r):	0.21379	0.206685	0.00710593	0
    Cl:	0.0663607	0.0663615	-8.58599e-07	0
    Cl(f):	0.192148	0.18606	0.00608808	0
    Cl(r):	-0.125787	-0.119698	-0.00608894	0
    CmPitch:	0.158967	0.152879	0.00608851	0
    CmRoll:	-0.00880476	-0.00886499	6.02289e-05	0
    CmYaw:	0.00395188	0.00414925	-0.000197364	0
    Cs:	0.00821388	0.00824351	-2.96328e-05	0
    Cs(f):	0.00805882	0.008271	-0.00021218	0
    Cs(r):	0.000155056	-2.74916e-05	0.000182547	0

    writing force and moment coefficient files.

Time = 42

smoothSolver:  Solving for Ux, Initial residual = 0.000911427, Final residual = 8.43265e-05, No Iterations 7
smoothSolver:  Solving for Uy, Initial residual = 0.0214465, Final residual = 0.00209652, No Iterations 6
smoothSolver:  Solving for Uz, Initial residual = 0.0176061, Final residual = 0.00169746, No Iterations 6
GAMG:  Solving for p, Initial residual = 0.00826631, Final residual = 3.74994e-05, No Iterations 4
time step continuity errors : sum local = 7.22416e-05, global = -1.65151e-06, cumulative = 0.000149167
smoothSolver:  Solving for omega, Initial residual = 0.000169324, Final residual = 1.24033e-05, No Iterations 3
smoothSolver:  Solving for k, Initial residual = 0.00222561, Final residual = 0.000203013, No Iterations 3
ExecutionTime = 82.62 s  ClockTime = 83 s

forceCoeffs forceCoeffs1 write:
    Coefficient	Total	Pressure	Viscous	Internal
    Cd:	0.409219	0.394837	0.0143816	0
    Cd(f):	0.195576	0.188323	0.0072529	0
    Cd(r):	0.213643	0.206514	0.0071287	0
    Cl:	0.0659763	0.0659827	-6.36779e-06	0
    Cl(f):	0.191923	0.185828	0.00609589	0
    Cl(r):	-0.125947	-0.119845	-0.00610226	0
    CmPitch:	0.158935	0.152836	0.00609908	0
    CmRoll:	-0.00903363	-0.00909573	6.21006e-05	0
    CmYaw:	0.00421771	0.00441114	-0.000193435	0
    Cs:	0.00899731	0.00902665	-2.93412e-05	0
    Cs(f):	0.00871636	0.00892447	-0.000208106	0
    Cs(r):	0.000280948	0.000102184	0.000178764	0

    writing force and moment coefficient files.

Time = 43

smoothSolver:  Solving for Ux, Initial residual = 0.000862765, Final residual = 8.01292e-05, No Iterations 7
smoothSolver:  Solving for Uy, Initial residual = 0.0204332, Final residual = 0.00198258, No Iterations 6
smoothSolver:  Solving for Uz, Initial residual = 0.0166981, Final residual = 0.00158893, No Iterations 6
GAMG:  Solving for p, Initial residual = 0.00796237, Final residual = 3.57079e-05, No Iterations 4
time step continuity errors : sum local = 6.86262e-05, global = -2.42332e-06, cumulative = 0.000146744
smoothSolver:  Solving for omega, Initial residual = 0.000161346, Final residual = 1.17553e-05, No Iterations 3
smoothSolver:  Solving for k, Initial residual = 0.00215047, Final residual = 0.000195356, No Iterations 3
ExecutionTime = 84.525 s  ClockTime = 84 s

forceCoeffs forceCoeffs1 write:
    Coefficient	Total	Pressure	Viscous	Internal
    Cd:	0.408754	0.394328	0.0144256	0
    Cd(f):	0.195249	0.187973	0.0072764	0
    Cd(r):	0.213505	0.206355	0.0071492	0
    Cl:	0.0657685	0.0657852	-1.66783e-05	0
    Cl(f):	0.191766	0.185667	0.0060994	0
    Cl(r):	-0.125997	-0.119881	-0.00611607	0
    CmPitch:	0.158882	0.152774	0.00610774	0
    CmRoll:	-0.00912785	-0.00919145	6.36e-05	0
    CmYaw:	0.00456636	0.00476003	-0.000193668	0
    Cs:	0.00953537	0.00956166	-2.62875e-05	0
    Cs(f):	0.00933405	0.00954086	-0.000206812	0
    Cs(r):	0.000201325	2.0801e-05	0.000180524	0

    writing force and moment coefficient files.

Time = 44

smoothSolver:  Solving for Ux, Initial residual = 0.000817143, Final residual = 7.65095e-05, No Iterations 7
smoothSolver:  Solving for Uy, Initial residual = 0.0193554, Final residual = 0.0018857, No Iterations 6
smoothSolver:  Solving for Uz, Initial residual = 0.0159143, Final residual = 0.00150846, No Iterations 6
GAMG:  Solving for p, Initial residual = 0.00765844, Final residual = 3.41346e-05, No Iterations 4
time step continuity errors : sum local = 6.54469e-05, global = -2.97374e-06, cumulative = 0.00014377
smoothSolver:  Solving for omega, Initial residual = 0.000153355, Final residual = 1.1134e-05, No Iterations 3
smoothSolver:  Solving for k, Initial residual = 0.00207361, Final residual = 0.000187843, No Iterations 3
ExecutionTime = 86.44 s  ClockTime = 86 s

forceCoeffs forceCoeffs1 write:
    Coefficient	Total	Pressure	Viscous	Internal
    Cd:	0.408568	0.394101	0.014467	0
    Cd(f):	0.195171	0.187873	0.00729812	0
    Cd(r):	0.213397	0.206229	0.00716884	0
    Cl:	0.0658589	0.0658804	-2.15173e-05	0
    Cl(f):	0.19168	0.185575	0.00610522	0
    Cl(r):	-0.125821	-0.119694	-0.00612673	0
    CmPitch:	0.15875	0.152634	0.00611598	0
    CmRoll:	-0.00911335	-0.00917799	6.46382e-05	0
    CmYaw:	0.00501177	0.00520349	-0.000191724	0
    Cs:	0.00982323	0.00984499	-2.17622e-05	0
    Cs(f):	0.00992338	0.010126	-0.000202606	0
    Cs(r):	-0.000100156	-0.000281	0.000180843	0

    writing force and moment coefficient files.

Time = 45

smoothSolver:  Solving for Ux, Initial residual = 0.000778995, Final residual = 7.36388e-05, No Iterations 7
smoothSolver:  Solving for Uy, Initial residual = 0.0184593, Final residual = 0.00182855, No Iterations 6
smoothSolver:  Solving for Uz, Initial residual = 0.0151793, Final residual = 0.00144303, No Iterations 6
GAMG:  Solving for p, Initial residual = 0.00734355, Final residual = 3.28481e-05, No Iterations 4
time step continuity errors : sum local = 6.28281e-05, global = -3.18129e-06, cumulative = 0.000140589
smoothSolver:  Solving for omega, Initial residual = 0.000146326, Final residual = 1.05875e-05, No Iterations 3
smoothSolver:  Solving for k, Initial residual = 0.00200806, Final residual = 0.000181232, No Iterations 3
ExecutionTime = 88.317 s  ClockTime = 88 s

forceCoeffs forceCoeffs1 write:
    Coefficient	Total	Pressure	Viscous	Internal
    Cd:	0.408556	0.39406	0.0144969	0
    Cd(f):	0.19523	0.187916	0.00731403	0
    Cd(r):	0.213326	0.206143	0.00718283	0
    Cl:	0.0663573	0.0663809	-2.36448e-05	0
    Cl(f):	0.191607	0.185501	0.00610658	0
    Cl(r):	-0.12525	-0.11912	-0.00613022	0
    CmPitch:	0.158429	0.15231	0.0061184	0
    CmRoll:	-0.00904784	-0.00911344	6.56002e-05	0
    CmYaw:	0.00550538	0.00569788	-0.000192495	0
    Cs:	0.00989928	0.00991422	-1.49421e-05	0
    Cs(f):	0.010455	0.010655	-0.000199966	0
    Cs(r):	-0.000555745	-0.000740769	0.000185024	0

    writing force and moment coefficient files.

Time = 46

smoothSolver:  Solving for Ux, Initial residual = 0.000743179, Final residual = 7.12121e-05, No Iterations 7
smoothSolver:  Solving for Uy, Initial residual = 0.0176642, Final residual = 0.00131348, No Iterations 7
smoothSolver:  Solving for Uz, Initial residual = 0.0144616, Final residual = 0.00138552, No Iterations 6
GAMG:  Solving for p, Initial residual = 0.00704813, Final residual = 3.22185e-05, No Iterations 4
time step continuity errors : sum local = 6.14796e-05, global = -3.08228e-06, cumulative = 0.000137507
smoothSolver:  Solving for omega, Initial residual = 0.000139567, Final residual = 1.00853e-05, No Iterations 3
smoothSolver:  Solving for k, Initial residual = 0.00194593, Final residual = 0.000175506, No Iterations 3
ExecutionTime = 90.128 s  ClockTime = 90 s

forceCoeffs forceCoeffs1 write:
    Coefficient	Total	Pressure	Viscous	Internal
    Cd:	0.408585	0.394064	0.0145204	0
    Cd(f):	0.195366	0.18804	0.00732611	0
    Cd(r):	0.213219	0.206025	0.00719427	0
    Cl:	0.0670895	0.0671031	-1.36681e-05	0
    Cl(f):	0.191464	0.185352	0.00611216	0
    Cl(r):	-0.124375	-0.118249	-0.00612582	0
    CmPitch:	0.157919	0.1518	0.00611899	0
    CmRoll:	-0.00892654	-0.00899246	6.592e-05	0
    CmYaw:	0.00600596	0.00619751	-0.000191551	0
    Cs:	0.00971439	0.00972219	-7.80475e-06	0
    Cs(f):	0.0108632	0.0110586	-0.000195453	0
    Cs(r):	-0.00114877	-0.00133642	0.000187648	0

    writing force and moment coefficient files.

Time = 47

smoothSolver:  Solving for Ux, Initial residual = 0.000715265, Final residual = 6.92009e-05, No Iterations 7
smoothSolver:  Solving for Uy, Initial residual = 0.0168976, Final residual = 0.00126527, No Iterations 7
smoothSolver:  Solving for Uz, Initial residual = 0.0138613, Final residual = 0.00133962, No Iterations 6
GAMG:  Solving for p, Initial residual = 0.00675525, Final residual = 3.1731e-05, No Iterations 4
time step continuity errors : sum local = 6.04147e-05, global = -2.86953e-06, cumulative = 0.000134637
smoothSolver:  Solving for omega, Initial residual = 0.000132534, Final residual = 9.59373e-06, No Iterations 3
smoothSolver:  Solving for k, Initial residual = 0.00188103, Final residual = 0.000170087, No Iterations 3
ExecutionTime = 91.885 s  ClockTime = 92 s

forceCoeffs forceCoeffs1 write:
    Coefficient	Total	Pressure	Viscous	Internal
    Cd:	0.40859	0.39405	0.0145402	0
    Cd(f):	0.195456	0.188119	0.00733717	0
    Cd(r):	0.213134	0.205931	0.00720306	0
    Cl:	0.0680333	0.0680336	-2.80758e-07	0
    Cl(f):	0.191293	0.185174	0.00611879	0
    Cl(r):	-0.12326	-0.117141	-0.00611907	0
    CmPitch:	0.157276	0.151158	0.00611893	0
    CmRoll:	-0.00883898	-0.00890604	6.70582e-05	0
    CmYaw:	0.00640277	0.00659665	-0.000193879	0
    Cs:	0.00941702	0.009419	-1.98318e-06	0
    Cs(f):	0.0111113	0.0113062	-0.000194871	0
    Cs(r):	-0.00169426	-0.00188715	0.000192888	0

    writing force and moment coefficient files.

Time = 48

smoothSolver:  Solving for Ux, Initial residual = 0.000690312, Final residual = 6.74181e-05, No Iterations 7
smoothSolver:  Solving for Uy, Initial residual = 0.0161262, Final residual = 0.00120089, No Iterations 7
smoothSolver:  Solving for Uz, Initial residual = 0.0133422, Final residual = 0.00129022, No Iterations 6
GAMG:  Solving for p, Initial residual = 0.00649891, Final residual = 3.09317e-05, No Iterations 4
time step continuity errors : sum local = 5.87777e-05, global = -2.26596e-06, cumulative = 0.000132371
smoothSolver:  Solving for omega, Initial residual = 0.000126571, Final residual = 9.15778e-06, No Iterations 3
smoothSolver:  Solving for k, Initial residual = 0.00181501, Final residual = 0.000164587, No Iterations 3
ExecutionTime = 93.691 s  ClockTime = 94 s

forceCoeffs forceCoeffs1 write:
    Coefficient	Total	Pressure	Viscous	Internal
    Cd:	0.408648	0.394089	0.014559	0
    Cd(f):	0.195508	0.18816	0.00734841	0
    Cd(r):	0.21314	0.20593	0.00721054	0
    Cl:	0.0689452	0.0689256	1.95788e-05	0
    Cl(f):	0.191151	0.185021	0.00613013	0
    Cl(r):	-0.122206	-0.116095	-0.00611055	0
    CmPitch:	0.156678	0.150558	0.00612034	0
    CmRoll:	-0.00881597	-0.0088849	6.89359e-05	0
    CmYaw:	0.00668915	0.00688569	-0.000196539	0
    Cs:	0.00913448	0.00913264	1.8432e-06	0
    Cs(f):	0.0112564	0.011452	-0.000195617	0
    Cs(r):	-0.00212191	-0.00231937	0.000197461	0

    writing force and moment coefficient files.

Time = 49

smoothSolver:  Solving for Ux, Initial residual = 0.000671359, Final residual = 6.6009e-05, No Iterations 7
smoothSolver:  Solving for Uy, Initial residual = 0.0154149, Final residual = 0.00113602, No Iterations 7
smoothSolver:  Solving for Uz, Initial residual = 0.0128259, Final residual = 0.00124352, No Iterations 6
GAMG:  Solving for p, Initial residual = 0.00628762, Final residual = 2.94745e-05, No Iterations 4
time step continuity errors : sum local = 5.59287e-05, global = -1.29537e-06, cumulative = 0.000131076
smoothSolver:  Solving for omega, Initial residual = 0.000121979, Final residual = 8.81141e-06, No Iterations 3
smoothSolver:  Solving for k, Initial residual = 0.0017508, Final residual = 0.000159068, No Iterations 3
ExecutionTime = 95.727 s  ClockTime = 96 s

forceCoeffs forceCoeffs1 write:
    Coefficient	Total	Pressure	Viscous	Internal
    Cd:	0.408726	0.394145	0.0145805	0
    Cd(f):	0.195484	0.188122	0.00736135	0
    Cd(r):	0.213242	0.206023	0.00721913	0
    Cl:	0.0697346	0.0696965	3.8165e-05	0
    Cl(f):	0.190991	0.184847	0.00614415	0
    Cl(r):	-0.121257	-0.115151	-0.00610598	0
    CmPitch:	0.156124	0.149999	0.00612506	0
    CmRoll:	-0.00887913	-0.00895024	7.11105e-05	0
    CmYaw:	0.00679866	0.0070029	-0.000204239	0
    Cs:	0.00903803	0.00903336	4.67111e-06	0
    Cs(f):	0.0113177	0.0115196	-0.000201903	0
    Cs(r):	-0.00227964	-0.00248622	0.000206575	0

    writing force and moment coefficient files.

Time = 50

smoothSolver:  Solving for Ux, Initial residual = 0.000654151, Final residual = 6.44033e-05, No Iterations 7
smoothSolver:  Solving for Uy, Initial residual = 0.0147874, Final residual = 0.00147866, No Iterations 6
smoothSolver:  Solving for Uz, Initial residual = 0.0123813, Final residual = 0.00120786, No Iterations 6
GAMG:  Solving for p, Initial residual = 0.00610347, Final residual = 2.78845e-05, No Iterations 4
time step continuity errors : sum local = 5.28725e-05, global = -2.39679e-07, cumulative = 0.000130836
smoothSolver:  Solving for omega, Initial residual = 0.000117813, Final residual = 8.49302e-06, No Iterations 3
smoothSolver:  Solving for k, Initial residual = 0.00168806, Final residual = 0.000153475, No Iterations 3
ExecutionTime = 97.72 s  ClockTime = 98 s

forceCoeffs forceCoeffs1 write:
    Coefficient	Total	Pressure	Viscous	Internal
    Cd:	0.40886	0.394246	0.0146143	0
    Cd(f):	0.195443	0.188062	0.00738086	0
    Cd(r):	0.213417	0.206184	0.00723347	0
    Cl:	0.0702018	0.0701471	5.47318e-05	0
    Cl(f):	0.190803	0.184639	0.00616352	0
    Cl(r):	-0.120601	-0.114492	-0.00610879	0
    CmPitch:	0.155702	0.149566	0.00613615	0
    CmRoll:	-0.00898701	-0.00906071	7.36994e-05	0
    CmYaw:	0.00677606	0.00698612	-0.000210069	0
    Cs:	0.00907558	0.00906919	6.39442e-06	0
    Cs(f):	0.0113138	0.0115207	-0.000206872	0
    Cs(r):	-0.00223826	-0.00245153	0.000213267	0

    writing force and moment coefficient files.

Time = 51

smoothSolver:  Solving for Ux, Initial residual = 0.000637444, Final residual = 6.2466e-05, No Iterations 7
smoothSolver:  Solving for Uy, Initial residual = 0.0142758, Final residual = 0.00104902, No Iterations 7
smoothSolver:  Solving for Uz, Initial residual = 0.0119501, Final residual = 0.00118126, No Iterations 6
GAMG:  Solving for p, Initial residual = 0.0059162, Final residual = 2.71297e-05, No Iterations 4
time step continuity errors : sum local = 5.14415e-05, global = 6.56274e-07, cumulative = 0.000131492
smoothSolver:  Solving for omega, Initial residual = 0.000113308, Final residual = 8.13302e-06, No Iterations 3
smoothSolver:  Solving for k, Initial residual = 0.00162037, Final residual = 0.000147618, No Iterations 3
ExecutionTime = 99.591 s  ClockTime = 100 s

forceCoeffs forceCoeffs1 write:
    Coefficient	Total	Pressure	Viscous	Internal
    Cd:	0.408988	0.394335	0.0146529	0
    Cd(f):	0.195385	0.187983	0.00740191	0
    Cd(r):	0.213604	0.206353	0.00725096	0
    Cl:	0.0705708	0.0705042	6.65748e-05	0
    Cl(f):	0.190686	0.184504	0.00618135	0
    Cl(r):	-0.120115	-0.114	-0.00611478	0
    CmPitch:	0.1554	0.149252	0.00614807	0
    CmRoll:	-0.00910956	-0.00918504	7.54731e-05	0
    CmYaw:	0.00663839	0.00685608	-0.000217688	0
    Cs:	0.00923874	0.00923107	7.66688e-06	0
    Cs(f):	0.0112578	0.0114716	-0.000213854	0
    Cs(r):	-0.00201902	-0.00224054	0.000221521	0

    writing force and moment coefficient files.

Time = 52

smoothSolver:  Solving for Ux, Initial residual = 0.000620077, Final residual = 6.0356e-05, No Iterations 7
smoothSolver:  Solving for Uy, Initial residual = 0.0136905, Final residual = 0.00100366, No Iterations 7
smoothSolver:  Solving for Uz, Initial residual = 0.0115172, Final residual = 0.000857747, No Iterations 7
GAMG:  Solving for p, Initial residual = 0.00573993, Final residual = 2.704e-05, No Iterations 4
time step continuity errors : sum local = 5.13079e-05, global = 9.59401e-07, cumulative = 0.000132452
smoothSolver:  Solving for omega, Initial residual = 0.000109217, Final residual = 7.79232e-06, No Iterations 3
smoothSolver:  Solving for k, Initial residual = 0.00154955, Final residual = 0.000141746, No Iterations 3
ExecutionTime = 101.323 s  ClockTime = 101 s

forceCoeffs forceCoeffs1 write:
    Coefficient	Total	Pressure	Viscous	Internal
    Cd:	0.409091	0.394395	0.0146957	0
    Cd(f):	0.195367	0.18794	0.00742712	0
    Cd(r):	0.213724	0.206455	0.00726861	0
    Cl:	0.0706779	0.0705992	7.86691e-05	0
    Cl(f):	0.190508	0.184308	0.00619947	0
    Cl(r):	-0.11983	-0.113709	-0.0061208	0
    CmPitch:	0.155169	0.149009	0.00616013	0
    CmRoll:	-0.00917842	-0.00925767	7.92527e-05	0
    CmYaw:	0.00647654	0.00669884	-0.000222303	0
    Cs:	0.00934389	0.00934113	2.76701e-06	0
    Cs(f):	0.0111485	0.0113694	-0.000220919	0
    Cs(r):	-0.00180459	-0.00202828	0.000223686	0

    writing force and moment coefficient files.

Time = 53

smoothSolver:  Solving for Ux, Initial residual = 0.000601104, Final residual = 5.78314e-05, No Iterations 7
smoothSolver:  Solving for Uy, Initial residual = 0.0131163, Final residual = 0.00130729, No Iterations 6
smoothSolver:  Solving for Uz, Initial residual = 0.011114, Final residual = 0.00083437, No Iterations 7
GAMG:  Solving for p, Initial residual = 0.00556284, Final residual = 2.54176e-05, No Iterations 4
[...]
    Cd:	0.417201	0.402267	0.0149337	0
    Cd(f):	0.193017	0.185453	0.00756417	0
    Cd(r):	0.224184	0.216814	0.00736957	0
    Cl:	0.0631844	0.0629701	0.000214297	0
    Cl(f):	0.189	0.182657	0.00634291	0
    Cl(r):	-0.125815	-0.119687	-0.00612862	0
    CmPitch:	0.157408	0.151172	0.00623576	0
    CmRoll:	-0.0155834	-0.0156807	9.73011e-05	0
    CmYaw:	0.0105943	0.0109057	-0.000311341	0
    Cs:	0.0211999	0.0212465	-4.65946e-05	0
    Cs(f):	0.0211943	0.0215289	-0.000334639	0
    Cs(r):	5.6319e-06	-0.000282412	0.000288044	0

    writing force and moment coefficient files.

Time = 488

smoothSolver:  Solving for Ux, Initial residual = 0.0001179, Final residual = 9.00956e-06, No Iterations 8
smoothSolver:  Solving for Uy, Initial residual = 0.00250543, Final residual = 0.000225476, No Iterations 7
smoothSolver:  Solving for Uz, Initial residual = 0.00195855, Final residual = 0.000182398, No Iterations 7
GAMG:  Solving for p, Initial residual = 0.000694097, Final residual = 4.17791e-06, No Iterations 4
time step continuity errors : sum local = 8.07545e-06, global = 3.28566e-07, cumulative = 0.000126788
smoothSolver:  Solving for omega, Initial residual = 1.5443e-05, Final residual = 8.59643e-07, No Iterations 3
smoothSolver:  Solving for k, Initial residual = 0.000198594, Final residual = 1.19491e-05, No Iterations 3
ExecutionTime = 956.841 s  ClockTime = 957 s

forceCoeffs forceCoeffs1 write:
    Coefficient	Total	Pressure	Viscous	Internal
    Cd:	0.417032	0.402101	0.0149311	0
    Cd(f):	0.19301	0.185446	0.00756337	0
    Cd(r):	0.224023	0.216655	0.00736769	0
    Cl:	0.0630858	0.0628673	0.000218489	0
    Cl(f):	0.188838	0.182495	0.00634344	0
    Cl(r):	-0.125752	-0.119627	-0.00612495	0
    CmPitch:	0.157295	0.151061	0.0062342	0
    CmRoll:	-0.0155065	-0.0156043	9.78416e-05	0
    CmYaw:	0.0105415	0.0108523	-0.000310789	0
    Cs:	0.021168	0.0212144	-4.63661e-05	0
    Cs(f):	0.0211255	0.0214595	-0.000333972	0
    Cs(r):	4.2534e-05	-0.000245072	0.000287606	0

    writing force and moment coefficient files.

Time = 489

smoothSolver:  Solving for Ux, Initial residual = 0.000117161, Final residual = 8.91381e-06, No Iterations 8
smoothSolver:  Solving for Uy, Initial residual = 0.00250191, Final residual = 0.000224599, No Iterations 7
smoothSolver:  Solving for Uz, Initial residual = 0.001945, Final residual = 0.000185205, No Iterations 7
GAMG:  Solving for p, Initial residual = 0.000696832, Final residual = 4.28517e-06, No Iterations 4
time step continuity errors : sum local = 8.284e-06, global = 1.43332e-07, cumulative = 0.000126932
smoothSolver:  Solving for omega, Initial residual = 1.55814e-05, Final residual = 8.66345e-07, No Iterations 3
smoothSolver:  Solving for k, Initial residual = 0.000201774, Final residual = 1.21486e-05, No Iterations 3
ExecutionTime = 958.898 s  ClockTime = 959 s

forceCoeffs forceCoeffs1 write:
    Coefficient	Total	Pressure	Viscous	Internal
    Cd:	0.416969	0.402039	0.01493	0
    Cd(f):	0.193094	0.18553	0.00756388	0
    Cd(r):	0.223875	0.216508	0.00736617	0
    Cl:	0.0631056	0.0628879	0.000217716	0
    Cl(f):	0.188753	0.182411	0.00634258	0
    Cl(r):	-0.125648	-0.119523	-0.00612486	0
    CmPitch:	0.157201	0.150967	0.00623372	0
    CmRoll:	-0.0153901	-0.0154889	9.88555e-05	0
    CmYaw:	0.0104104	0.0107214	-0.000310964	0
    Cs:	0.0210285	0.0210771	-4.86581e-05	0
    Cs(f):	0.0209246	0.0212599	-0.000335293	0
    Cs(r):	0.000103842	-0.000182794	0.000286635	0

    writing force and moment coefficient files.

Time = 490

smoothSolver:  Solving for Ux, Initial residual = 0.000116005, Final residual = 8.76574e-06, No Iterations 8
smoothSolver:  Solving for Uy, Initial residual = 0.00245831, Final residual = 0.000219384, No Iterations 7
smoothSolver:  Solving for Uz, Initial residual = 0.00191502, Final residual = 0.00018201, No Iterations 7
GAMG:  Solving for p, Initial residual = 0.000706788, Final residual = 4.41204e-06, No Iterations 4
time step continuity errors : sum local = 8.53019e-06, global = -1.07403e-07, cumulative = 0.000126824
smoothSolver:  Solving for omega, Initial residual = 1.54598e-05, Final residual = 8.85741e-07, No Iterations 3
smoothSolver:  Solving for k, Initial residual = 0.000202213, Final residual = 1.23258e-05, No Iterations 3
ExecutionTime = 960.902 s  ClockTime = 961 s

forceCoeffs forceCoeffs1 write:
    Coefficient	Total	Pressure	Viscous	Internal
    Cd:	0.416947	0.402019	0.0149282	0
    Cd(f):	0.193217	0.185653	0.0075642	0
    Cd(r):	0.22373	0.216366	0.00736398	0
    Cl:	0.0632543	0.0630351	0.000219246	0
    Cl(f):	0.188783	0.182441	0.00634157	0
    Cl(r):	-0.125529	-0.119406	-0.00612233	0
    CmPitch:	0.157156	0.150924	0.00623195	0
    CmRoll:	-0.0152566	-0.0153567	0.000100113	0
    CmYaw:	0.0102322	0.0105433	-0.000311166	0
    Cs:	0.020829	0.0208788	-4.97472e-05	0
    Cs(f):	0.0206467	0.0209827	-0.000336039	0
    Cs(r):	0.000182339	-0.000103953	0.000286292	0

    writing force and moment coefficient files.

Time = 491

smoothSolver:  Solving for Ux, Initial residual = 0.000116744, Final residual = 8.79718e-06, No Iterations 8
smoothSolver:  Solving for Uy, Initial residual = 0.00244346, Final residual = 0.000216606, No Iterations 7
smoothSolver:  Solving for Uz, Initial residual = 0.00191655, Final residual = 0.000177631, No Iterations 7
GAMG:  Solving for p, Initial residual = 0.000713038, Final residual = 4.21132e-06, No Iterations 4
time step continuity errors : sum local = 8.14084e-06, global = -3.12663e-07, cumulative = 0.000126512
smoothSolver:  Solving for omega, Initial residual = 1.56826e-05, Final residual = 9.00679e-07, No Iterations 3
smoothSolver:  Solving for k, Initial residual = 0.000201555, Final residual = 1.24568e-05, No Iterations 3
ExecutionTime = 962.905 s  ClockTime = 963 s

forceCoeffs forceCoeffs1 write:
    Coefficient	Total	Pressure	Viscous	Internal
    Cd:	0.417058	0.402136	0.0149214	0
    Cd(f):	0.193378	0.185816	0.00756269	0
    Cd(r):	0.22368	0.216321	0.00735868	0
    Cl:	0.0635201	0.0633016	0.000218499	0
    Cl(f):	0.188966	0.182626	0.00634003	0
    Cl(r):	-0.125446	-0.119324	-0.00612153	0
    CmPitch:	0.157206	0.150975	0.00623078	0
    CmRoll:	-0.0151506	-0.0152526	0.000102006	0
    CmYaw:	0.0100154	0.0103279	-0.000312523	0
    Cs:	0.0206336	0.0206873	-5.37283e-05	0
    Cs(f):	0.0203321	0.0206715	-0.000339387	0
    Cs(r):	0.000301412	1.57534e-05	0.000285658	0

    writing force and moment coefficient files.

Time = 492

smoothSolver:  Solving for Ux, Initial residual = 0.000117928, Final residual = 8.96867e-06, No Iterations 8
smoothSolver:  Solving for Uy, Initial residual = 0.00246226, Final residual = 0.000219341, No Iterations 7
smoothSolver:  Solving for Uz, Initial residual = 0.00195025, Final residual = 0.000178458, No Iterations 7
GAMG:  Solving for p, Initial residual = 0.000728492, Final residual = 4.21437e-06, No Iterations 4
time step continuity errors : sum local = 8.14476e-06, global = -4.22755e-07, cumulative = 0.000126089
smoothSolver:  Solving for omega, Initial residual = 1.6049e-05, Final residual = 9.05405e-07, No Iterations 3
smoothSolver:  Solving for k, Initial residual = 0.000200115, Final residual = 1.23328e-05, No Iterations 3
ExecutionTime = 964.995 s  ClockTime = 965 s

forceCoeffs forceCoeffs1 write:
    Coefficient	Total	Pressure	Viscous	Internal
    Cd:	0.417226	0.402303	0.014923	0
    Cd(f):	0.193499	0.185935	0.00756436	0
    Cd(r):	0.223727	0.216368	0.00735868	0
    Cl:	0.0637562	0.0635376	0.000218536	0
    Cl(f):	0.1892	0.18286	0.00633995	0
    Cl(r):	-0.125443	-0.119322	-0.00612142	0
    CmPitch:	0.157321	0.151091	0.00623069	0
    CmRoll:	-0.015114	-0.0152168	0.000102837	0
    CmYaw:	0.00977394	0.0100879	-0.000313954	0
    Cs:	0.0205855	0.0206401	-5.45758e-05	0
    Cs(f):	0.0200667	0.0204079	-0.000341242	0
    Cs(r):	0.000518818	0.000232151	0.000286667	0

    writing force and moment coefficient files.

Time = 493

smoothSolver:  Solving for Ux, Initial residual = 0.000119802, Final residual = 9.15558e-06, No Iterations 8
smoothSolver:  Solving for Uy, Initial residual = 0.00252612, Final residual = 0.000225321, No Iterations 7
smoothSolver:  Solving for Uz, Initial residual = 0.0019847, Final residual = 0.000182463, No Iterations 7
GAMG:  Solving for p, Initial residual = 0.000731312, Final residual = 4.20989e-06, No Iterations 4
time step continuity errors : sum local = 8.13256e-06, global = -4.60658e-07, cumulative = 0.000125628
smoothSolver:  Solving for omega, Initial residual = 1.60177e-05, Final residual = 9.00726e-07, No Iterations 3
smoothSolver:  Solving for k, Initial residual = 0.000199342, Final residual = 1.21793e-05, No Iterations 3
ExecutionTime = 966.915 s  ClockTime = 967 s

forceCoeffs forceCoeffs1 write:
    Coefficient	Total	Pressure	Viscous	Internal
    Cd:	0.417461	0.402539	0.0149224	0
    Cd(f):	0.193586	0.18602	0.00756549	0
    Cd(r):	0.223876	0.216519	0.00735688	0
    Cl:	0.0639542	0.0637372	0.000217045	0
    Cl(f):	0.189459	0.183118	0.00634023	0
    Cl(r):	-0.125504	-0.119381	-0.00612318	0
    CmPitch:	0.157482	0.15125	0.00623171	0
    CmRoll:	-0.0151451	-0.0152494	0.000104305	0
    CmYaw:	0.00955177	0.00986713	-0.000315364	0
    Cs:	0.0206542	0.0207126	-5.839e-05	0
    Cs(f):	0.0198789	0.0202234	-0.000344559	0
    Cs(r):	0.000775336	0.000489166	0.000286169	0

    writing force and moment coefficient files.

Time = 494

smoothSolver:  Solving for Ux, Initial residual = 0.000120554, Final residual = 9.37307e-06, No Iterations 8
smoothSolver:  Solving for Uy, Initial residual = 0.00255815, Final residual = 0.000232299, No Iterations 7
smoothSolver:  Solving for Uz, Initial residual = 0.00201, Final residual = 0.000188691, No Iterations 7
GAMG:  Solving for p, Initial residual = 0.000736687, Final residual = 4.27503e-06, No Iterations 4
time step continuity errors : sum local = 8.25569e-06, global = -4.25016e-07, cumulative = 0.000125203
smoothSolver:  Solving for omega, Initial residual = 1.64144e-05, Final residual = 9.12745e-07, No Iterations 3
smoothSolver:  Solving for k, Initial residual = 0.000200495, Final residual = 1.22076e-05, No Iterations 3
ExecutionTime = 968.964 s  ClockTime = 969 s

forceCoeffs forceCoeffs1 write:
    Coefficient	Total	Pressure	Viscous	Internal
    Cd:	0.417604	0.402681	0.014923	0
    Cd(f):	0.193553	0.185987	0.00756603	0
    Cd(r):	0.224051	0.216694	0.00735702	0
    Cl:	0.0640469	0.0638275	0.00021933	0
    Cl(f):	0.189662	0.183319	0.00634247	0
    Cl(r):	-0.125615	-0.119492	-0.00612314	0
    CmPitch:	0.157638	0.151406	0.0062328	0
    CmRoll:	-0.0152489	-0.0153534	0.000104503	0
    CmYaw:	0.00937851	0.00969483	-0.000316315	0
    Cs:	0.0209019	0.0209605	-5.85434e-05	0
    Cs(f):	0.0198295	0.0201751	-0.000345586	0
    Cs(r):	0.00107244	0.000785397	0.000287043	0

    writing force and moment coefficient files.

Time = 495

smoothSolver:  Solving for Ux, Initial residual = 0.000121595, Final residual = 9.49435e-06, No Iterations 8
smoothSolver:  Solving for Uy, Initial residual = 0.0025904, Final residual = 0.000236338, No Iterations 7
smoothSolver:  Solving for Uz, Initial residual = 0.00203028, Final residual = 0.000193611, No Iterations 7
GAMG:  Solving for p, Initial residual = 0.000737778, Final residual = 4.29503e-06, No Iterations 4
time step continuity errors : sum local = 8.29134e-06, global = -3.16801e-07, cumulative = 0.000124886
smoothSolver:  Solving for omega, Initial residual = 1.64275e-05, Final residual = 9.22093e-07, No Iterations 3
smoothSolver:  Solving for k, Initial residual = 0.000203135, Final residual = 1.23276e-05, No Iterations 3
ExecutionTime = 970.913 s  ClockTime = 971 s

forceCoeffs forceCoeffs1 write:
    Coefficient	Total	Pressure	Viscous	Internal
    Cd:	0.417711	0.402786	0.0149247	0
    Cd(f):	0.193427	0.18586	0.00756701	0
    Cd(r):	0.224284	0.216926	0.00735768	0
    Cl:	0.064041	0.0638231	0.000217917	0
    Cl(f):	0.189804	0.18346	0.00634406	0
    Cl(r):	-0.125763	-0.119637	-0.00612614	0
    CmPitch:	0.157784	0.151548	0.0062351	0
    CmRoll:	-0.0154286	-0.0155333	0.000104667	0
    CmYaw:	0.00925813	0.00957532	-0.000317191	0
    Cs:	0.0213167	0.0213764	-5.97182e-05	0
    Cs(f):	0.0199165	0.0202635	-0.00034705	0
    Cs(r):	0.00140022	0.00111289	0.000287332	0

    writing force and moment coefficient files.

Time = 496

smoothSolver:  Solving for Ux, Initial residual = 0.000121217, Final residual = 9.48595e-06, No Iterations 8
smoothSolver:  Solving for Uy, Initial residual = 0.00258936, Final residual = 0.000235861, No Iterations 7
smoothSolver:  Solving for Uz, Initial residual = 0.00202288, Final residual = 0.000194083, No Iterations 7
GAMG:  Solving for p, Initial residual = 0.000743646, Final residual = 4.53705e-06, No Iterations 4
time step continuity errors : sum local = 8.75711e-06, global = -9.66412e-08, cumulative = 0.00012479
smoothSolver:  Solving for omega, Initial residual = 1.63918e-05, Final residual = 9.43285e-07, No Iterations 3
smoothSolver:  Solving for k, Initial residual = 0.000205715, Final residual = 1.24922e-05, No Iterations 3
ExecutionTime = 972.888 s  ClockTime = 973 s

forceCoeffs forceCoeffs1 write:
    Coefficient	Total	Pressure	Viscous	Internal
    Cd:	0.417721	0.402793	0.0149277	0
    Cd(f):	0.193195	0.185627	0.00756782	0
    Cd(r):	0.224526	0.217166	0.00735989	0
    Cl:	0.0638977	0.0636787	0.000219023	0
    Cl(f):	0.189839	0.183493	0.00634542	0
    Cl(r):	-0.125941	-0.119815	-0.00612639	0
    CmPitch:	0.15789	0.151654	0.00623591	0
    CmRoll:	-0.0156657	-0.0157697	0.000103965	0
    CmYaw:	0.00919462	0.00951177	-0.000317148	0
    Cs:	0.0218995	0.0219571	-5.75449e-05	0
    Cs(f):	0.0201444	0.0204903	-0.00034592	0
    Cs(r):	0.00175514	0.00146676	0.000288375	0

    writing force and moment coefficient files.

Time = 497

smoothSolver:  Solving for Ux, Initial residual = 0.000122906, Final residual = 9.53573e-06, No Iterations 8
smoothSolver:  Solving for Uy, Initial residual = 0.00259869, Final residual = 0.000233525, No Iterations 7
smoothSolver:  Solving for Uz, Initial residual = 0.00202914, Final residual = 0.000190515, No Iterations 7
GAMG:  Solving for p, Initial residual = 0.000742515, Final residual = 4.57675e-06, No Iterations 4
time step continuity errors : sum local = 8.83256e-06, global = 1.4335e-07, cumulative = 0.000124933
smoothSolver:  Solving for omega, Initial residual = 1.67863e-05, Final residual = 9.57566e-07, No Iterations 3
smoothSolver:  Solving for k, Initial residual = 0.000206359, Final residual = 1.26415e-05, No Iterations 3
ExecutionTime = 974.996 s  ClockTime = 975 s

forceCoeffs forceCoeffs1 write:
    Coefficient	Total	Pressure	Viscous	Internal
    Cd:	0.417623	0.402697	0.0149265	0
    Cd(f):	0.192927	0.185361	0.00756598	0
    Cd(r):	0.224696	0.217335	0.00736048	0
    Cl:	0.0636964	0.0634774	0.000219042	0
    Cl(f):	0.189767	0.183419	0.00634761	0
    Cl(r):	-0.126071	-0.119942	-0.00612857	0
    CmPitch:	0.157919	0.151681	0.00623809	0
    CmRoll:	-0.0158841	-0.0159868	0.000102752	0
    CmYaw:	0.00918196	0.00949888	-0.000316917	0
    Cs:	0.0224477	0.0225038	-5.61428e-05	0
    Cs(f):	0.0204058	0.0207508	-0.000344989	0
    Cs(r):	0.00204187	0.00175303	0.000288846	0

    writing force and moment coefficient files.

Time = 498

smoothSolver:  Solving for Ux, Initial residual = 0.000125836, Final residual = 9.76055e-06, No Iterations 8
smoothSolver:  Solving for Uy, Initial residual = 0.00264061, Final residual = 0.000234207, No Iterations 7
smoothSolver:  Solving for Uz, Initial residual = 0.00207144, Final residual = 0.000191019, No Iterations 7
GAMG:  Solving for p, Initial residual = 0.000754158, Final residual = 4.50334e-06, No Iterations 4
time step continuity errors : sum local = 8.69189e-06, global = 3.07988e-07, cumulative = 0.000125241
smoothSolver:  Solving for omega, Initial residual = 1.71455e-05, Final residual = 9.72818e-07, No Iterations 3
smoothSolver:  Solving for k, Initial residual = 0.000205364, Final residual = 1.26393e-05, No Iterations 3
ExecutionTime = 977.043 s  ClockTime = 977 s

forceCoeffs forceCoeffs1 write:
    Coefficient	Total	Pressure	Viscous	Internal
    Cd:	0.417389	0.402457	0.014932	0
    Cd(f):	0.19264	0.185072	0.00756789	0
    Cd(r):	0.224749	0.217385	0.00736409	0
    Cl:	0.063411	0.0631894	0.00022161	0
    Cl(f):	0.189568	0.183216	0.00635187	0
    Cl(r):	-0.126157	-0.120027	-0.00613026	0
    CmPitch:	0.157863	0.151622	0.00624106	0
    CmRoll:	-0.0160548	-0.0161567	0.000101898	0
    CmYaw:	0.00919125	0.00950711	-0.000315852	0
    Cs:	0.0229424	0.0229956	-5.32161e-05	0
    Cs(f):	0.0206624	0.0210049	-0.00034246	0
    Cs(r):	0.00227992	0.00199068	0.000289244	0

    writing force and moment coefficient files.

Time = 499

smoothSolver:  Solving for Ux, Initial residual = 0.000129031, Final residual = 9.99753e-06, No Iterations 8
smoothSolver:  Solving for Uy, Initial residual = 0.00270813, Final residual = 0.000239237, No Iterations 7
smoothSolver:  Solving for Uz, Initial residual = 0.00212953, Final residual = 0.000194907, No Iterations 7
GAMG:  Solving for p, Initial residual = 0.000765406, Final residual = 4.49299e-06, No Iterations 4
time step continuity errors : sum local = 8.67346e-06, global = 3.6545e-07, cumulative = 0.000125607
smoothSolver:  Solving for omega, Initial residual = 1.715e-05, Final residual = 9.76268e-07, No Iterations 3
smoothSolver:  Solving for k, Initial residual = 0.000206007, Final residual = 1.24398e-05, No Iterations 3
ExecutionTime = 979.066 s  ClockTime = 979 s

forceCoeffs forceCoeffs1 write:
    Coefficient	Total	Pressure	Viscous	Internal
    Cd:	0.417108	0.402179	0.0149293	0
    Cd(f):	0.19241	0.184845	0.00756575	0
    Cd(r):	0.224698	0.217334	0.00736356	0
    Cl:	0.0632192	0.0630005	0.000218718	0
    Cl(f):	0.189367	0.183016	0.00635054	0
    Cl(r):	-0.126147	-0.120016	-0.00613182	0
    CmPitch:	0.157757	0.151516	0.00624118	0
    CmRoll:	-0.0161438	-0.0162449	0.000101092	0
    CmYaw:	0.00919324	0.00950832	-0.000315078	0
    Cs:	0.0232638	0.0233154	-5.15772e-05	0
    Cs(f):	0.0208251	0.021166	-0.000340866	0
    Cs(r):	0.00243865	0.00214936	0.000289289	0

    writing force and moment coefficient files.

Time = 500

smoothSolver:  Solving for Ux, Initial residual = 0.00013076, Final residual = 1.01014e-05, No Iterations 8
smoothSolver:  Solving for Uy, Initial residual = 0.0027617, Final residual = 0.000246369, No Iterations 7
smoothSolver:  Solving for Uz, Initial residual = 0.00216584, Final residual = 0.000200672, No Iterations 7
GAMG:  Solving for p, Initial residual = 0.000781504, Final residual = 4.46444e-06, No Iterations 4
time step continuity errors : sum local = 8.62087e-06, global = 3.42771e-07, cumulative = 0.000125949
smoothSolver:  Solving for omega, Initial residual = 1.74406e-05, Final residual = 9.79504e-07, No Iterations 3
smoothSolver:  Solving for k, Initial residual = 0.000208841, Final residual = 1.24392e-05, No Iterations 3
ExecutionTime = 981.171 s  ClockTime = 981 s

streamLine streamLines write:
    seeded 20 particles
    Tracks:20
    Total samples:19413
nearWallFields near write:
    Sampling fields to 500
    Writing sampled fields to 500
wallBoundedStreamLine wallBoundedStreamLines write:
wallBoundedStreamLine : seeded 19965 particles.
    Tracks:19965
    Total samples:449780
forceCoeffs forceCoeffs1 write:
    Coefficient	Total	Pressure	Viscous	Internal
    Cd:	0.416797	0.401872	0.0149252	0
    Cd(f):	0.192253	0.184689	0.00756381	0
    Cd(r):	0.224545	0.217183	0.00736139	0
    Cl:	0.0630873	0.0628646	0.000222737	0
    Cl(f):	0.189172	0.182821	0.00635175	0
    Cl(r):	-0.126085	-0.119956	-0.00612901	0
    CmPitch:	0.157629	0.151388	0.00624038	0
    CmRoll:	-0.0161461	-0.0162474	0.000101211	0
    CmYaw:	0.00918886	0.00950343	-0.000314572	0
    Cs:	0.0233783	0.023429	-5.06868e-05	0
    Cs(f):	0.020878	0.0212179	-0.000339916	0
    Cs(r):	0.00250031	0.00221108	0.000289229	0

    writing force and moment coefficient files.

ensightWrite ensightWrite write:
    k
    omega
    p
    U

Scanning for sections beginning with "Time ="
Cached 47 lines
End

